# generated using pymatgen
data_CuNi5C34
_symmetry_space_group_name_H-M   'P 1'
_cell_length_a   8.53343200
_cell_length_b   8.53799211
_cell_length_c   8.61754343
_cell_angle_alpha   63.31851224
_cell_angle_beta   63.36297409
_cell_angle_gamma   62.75717739
_symmetry_Int_Tables_number   1
_chemical_formula_structural   CuNi5C34
_chemical_formula_sum   'Cu1 Ni5 C34'
_cell_volume   474.90888285
_cell_formula_units_Z   1
loop_
 _symmetry_equiv_pos_site_id
 _symmetry_equiv_pos_as_xyz
  1  'x, y, z'
loop_
 _atom_site_type_symbol
 _atom_site_label
 _atom_site_symmetry_multiplicity
 _atom_site_fract_x
 _atom_site_fract_y
 _atom_site_fract_z
 _atom_site_occupancy
  C  C0  1  0.64717600  0.85032000  0.24783400  1
  C  C1  1  0.33970400  0.15812600  0.75827800  1
  C  C2  1  0.15091200  0.75310100  0.34851400  1
  C  C3  1  0.76331900  0.34641800  0.14810200  1
  Ni  Ni4  1  0.01215100  0.99530200  0.99149100  1
  Ni  Ni5  1  0.64290800  0.64909300  0.64651100  1
  Ni  Ni6  1  0.50276500  0.48834000  0.50701300  1
  Ni  Ni7  1  0.85013300  0.85683300  0.85343400  1
  Ni  Ni8  1  0.34609500  0.34251000  0.34262500  1
  Cu  Cu9  1  0.15092300  0.15061600  0.15204900  1
  C  C10  1  0.55852500  0.25186200  0.93565300  1
  C  C11  1  0.24839600  0.94047800  0.56325000  1
  C  C12  1  0.94337900  0.55613300  0.24941200  1
  C  C13  1  0.03648800  0.46225200  0.75154100  1
  C  C14  1  0.75014700  0.04336100  0.44415600  1
  C  C15  1  0.45569200  0.75309200  0.05601300  1
  C  C16  1  0.30659400  0.09591800  0.54325100  1
  C  C17  1  0.09332700  0.52647700  0.31981900  1
  C  C18  1  0.53872500  0.30634600  0.09255400  1
  C  C19  1  0.74812700  0.08440800  0.92487400  1
  C  C20  1  0.39750000  0.19595600  0.96574500  1
  C  C21  1  0.58111000  0.40603800  0.74807400  1
  C  C22  1  0.09369600  0.91630100  0.75004400  1
  C  C23  1  0.41545500  0.75072600  0.57235800  1
  C  C24  1  0.99004100  0.61398800  0.82881500  1
  C  C25  1  0.74423800  0.57836700  0.39260500  1
  C  C26  1  0.05274500  0.26746900  0.90229200  1
  C  C27  1  0.81047700  0.99181300  0.60599700  1
  C  C28  1  0.19574700  0.97008400  0.40058500  1
  C  C29  1  0.92087800  0.75423600  0.10417000  1
  C  C30  1  0.23298100  0.44047000  0.60650300  1
  C  C31  1  0.98008400  0.40042100  0.18198900  1
  C  C32  1  0.59732400  0.23965400  0.42772100  1
  C  C33  1  0.90701400  0.06694800  0.25469800  1
  C  C34  1  0.42680200  0.60102400  0.24706100  1
  C  C35  1  0.60663300  0.81686000  0.03912200  1
  C  C36  1  0.26127200  0.91032600  0.06726100  1
  C  C37  1  0.50695500  0.69121200  0.89477100  1
  C  C38  1  0.88579400  0.50685500  0.67320700  1
  C  C39  1  0.68476900  0.89326700  0.46061000  1
