# generated using pymatgen
data_Cu2Ni6C55
_symmetry_space_group_name_H-M   'P 1'
_cell_length_a   9.67507879
_cell_length_b   9.67507879
_cell_length_c   9.19835019
_cell_angle_alpha   83.09519824
_cell_angle_beta   83.09519824
_cell_angle_gamma   75.25268186
_symmetry_Int_Tables_number   1
_chemical_formula_structural   Cu2Ni6C55
_chemical_formula_sum   'Cu2 Ni6 C55'
_cell_volume   823.01865548
_cell_formula_units_Z   1
loop_
 _symmetry_equiv_pos_site_id
 _symmetry_equiv_pos_as_xyz
  1  'x, y, z'
loop_
 _atom_site_type_symbol
 _atom_site_label
 _atom_site_symmetry_multiplicity
 _atom_site_fract_x
 _atom_site_fract_y
 _atom_site_fract_z
 _atom_site_occupancy
  Ni  Ni0  1  0.94911100  0.94911100  0.77152200  1
  Ni  Ni1  1  0.71374100  0.39255100  0.23213800  1
  Ni  Ni2  1  0.39255100  0.71374100  0.23213800  1
  Ni  Ni3  1  0.60744900  0.28625900  0.76786200  1
  Ni  Ni4  1  0.28625900  0.60744900  0.76786200  1
  Ni  Ni5  1  0.05088900  0.05088900  0.22847800  1
  Cu  Cu6  1  0.73856800  0.73856800  0.23068800  1
  Cu  Cu7  1  0.26143200  0.26143200  0.76931200  1
  C  C8  1  0.98978700  0.66726300  0.43659700  1
  C  C9  1  0.66726300  0.98978700  0.43659700  1
  C  C10  1  0.92579500  0.58867500  0.76965900  1
  C  C11  1  0.58867500  0.92579500  0.76965900  1
  C  C12  1  0.66564900  0.66564900  0.55580900  1
  C  C13  1  0.95969900  0.28269600  0.90322500  1
  C  C14  1  0.28269600  0.95969900  0.90322500  1
  C  C15  1  0.62189800  0.62189800  0.91371700  1
  C  C16  1  0.37810200  0.37810200  0.08628300  1
  C  C17  1  0.71730400  0.04030100  0.09677500  1
  C  C18  1  0.04030100  0.71730400  0.09677500  1
  C  C19  1  0.33435100  0.33435100  0.44419100  1
  C  C20  1  0.41132500  0.07420500  0.23034100  1
  C  C21  1  0.07420500  0.41132500  0.23034100  1
  C  C22  1  0.01021300  0.33273700  0.56340300  1
  C  C23  1  0.33273700  0.01021300  0.56340300  1
  C  C24  1  0.87708100  0.87708100  0.10157200  1
  C  C25  1  0.80161900  0.80161900  0.43748600  1
  C  C26  1  0.73942400  0.73942400  0.76229500  1
  C  C27  1  0.93630100  0.59267100  0.24152100  1
  C  C28  1  0.59267100  0.93630100  0.24152100  1
  C  C29  1  0.86831500  0.53482100  0.57008400  1
  C  C30  1  0.53482100  0.86831500  0.57008400  1
  C  C31  1  0.80465100  0.46891300  0.88465500  1
  C  C32  1  0.46891300  0.80465100  0.88465500  1
  C  C33  1  0.00205500  0.33522200  0.08638900  1
  C  C34  1  0.33522200  0.00205500  0.08638900  1
  C  C35  1  0.66182800  0.66182800  0.08208800  1
  C  C36  1  0.96492200  0.30010700  0.38179500  1
  C  C37  1  0.30010700  0.96492200  0.38179500  1
  C  C38  1  0.61989600  0.61989600  0.39203700  1
  C  C39  1  0.57153400  0.57153400  0.70138500  1
  C  C40  1  0.90678700  0.23752200  0.70301700  1
  C  C41  1  0.23752200  0.90678700  0.70301700  1
  C  C42  1  0.17213200  0.82786800  0.00000000  1
  C  C43  1  0.50000000  0.50000000  0.00000000  1
  C  C44  1  0.82786800  0.17213200  0.00000000  1
  C  C45  1  0.76247800  0.09321300  0.29698300  1
  C  C46  1  0.42846600  0.42846600  0.29861500  1
  C  C47  1  0.09321300  0.76247800  0.29698300  1
  C  C48  1  0.03507800  0.69989300  0.61820500  1
  C  C49  1  0.69989300  0.03507800  0.61820500  1
  C  C50  1  0.38010400  0.38010400  0.60796300  1
  C  C51  1  0.66477800  0.99794500  0.91361100  1
  C  C52  1  0.33817200  0.33817200  0.91791200  1
  C  C53  1  0.99794500  0.66477800  0.91361100  1
  C  C54  1  0.19534900  0.53108700  0.11534500  1
  C  C55  1  0.53108700  0.19534900  0.11534500  1
  C  C56  1  0.13168500  0.46517900  0.42991600  1
  C  C57  1  0.46517900  0.13168500  0.42991600  1
  C  C58  1  0.06369900  0.40732900  0.75847900  1
  C  C59  1  0.40732900  0.06369900  0.75847900  1
  C  C60  1  0.26057600  0.26057600  0.23770500  1
  C  C61  1  0.19838100  0.19838100  0.56251400  1
  C  C62  1  0.12291900  0.12291900  0.89842800  1
