# generated using pymatgen
data_Cu4Ni2C23
_symmetry_space_group_name_H-M   'P 1'
_cell_length_a   10.25301297
_cell_length_b   10.25301297
_cell_length_c   10.25301297
_cell_angle_alpha   60.00000000
_cell_angle_beta   60.00000000
_cell_angle_gamma   60.00000000
_symmetry_Int_Tables_number   1
_chemical_formula_structural   Cu4Ni2C23
_chemical_formula_sum   'Cu8 Ni4 C46'
_cell_volume   762.14836565
_cell_formula_units_Z   2
loop_
 _symmetry_equiv_pos_site_id
 _symmetry_equiv_pos_as_xyz
  1  'x, y, z'
loop_
 _atom_site_type_symbol
 _atom_site_label
 _atom_site_symmetry_multiplicity
 _atom_site_fract_x
 _atom_site_fract_y
 _atom_site_fract_z
 _atom_site_occupancy
  C  C0  1  0.70320400  0.70320400  0.29679600  1
  C  C1  1  0.95320400  0.95320400  0.54679600  1
  C  C2  1  0.29679600  0.70320400  0.70320400  1
  C  C3  1  0.70320400  0.29679600  0.29679600  1
  C  C4  1  0.95320400  0.54679600  0.95320400  1
  C  C5  1  0.54679600  0.95320400  0.54679600  1
  C  C6  1  0.29679600  0.70320400  0.29679600  1
  C  C7  1  0.70320400  0.29679600  0.70320400  1
  C  C8  1  0.54679600  0.95320400  0.95320400  1
  C  C9  1  0.54679600  0.54679600  0.95320400  1
  C  C10  1  0.95320400  0.54679600  0.54679600  1
  C  C11  1  0.29679600  0.29679600  0.70320400  1
  Ni  Ni12  1  0.62500000  0.12500000  0.12500000  1
  Ni  Ni13  1  0.12500000  0.62500000  0.12500000  1
  Ni  Ni14  1  0.12500000  0.12500000  0.12500000  1
  Ni  Ni15  1  0.12500000  0.12500000  0.62500000  1
  Cu  Cu16  1  0.34525600  0.96423200  0.34525600  1
  Cu  Cu17  1  0.90474400  0.90474400  0.90474400  1
  Cu  Cu18  1  0.28576800  0.90474400  0.90474400  1
  Cu  Cu19  1  0.34525600  0.34525600  0.96423200  1
  Cu  Cu20  1  0.96423200  0.34525600  0.34525600  1
  Cu  Cu21  1  0.90474400  0.90474400  0.28576800  1
  Cu  Cu22  1  0.90474400  0.28576800  0.90474400  1
  Cu  Cu23  1  0.34525600  0.34525600  0.34525600  1
  C  C24  1  0.75000000  0.75000000  0.75000000  1
  C  C25  1  0.50000000  0.50000000  0.50000000  1
  C  C26  1  0.68795000  0.68795000  0.68795000  1
  C  C27  1  0.93615100  0.68795000  0.68795000  1
  C  C28  1  0.68795000  0.68795000  0.93615100  1
  C  C29  1  0.68795000  0.93615100  0.68795000  1
  C  C30  1  0.91715100  0.03224000  0.28827600  1
  C  C31  1  0.76233300  0.28827600  0.03224000  1
  C  C32  1  0.91715100  0.76233300  0.03224000  1
  C  C33  1  0.21776000  0.96172400  0.33284900  1
  C  C34  1  0.03224000  0.91715100  0.76233300  1
  C  C35  1  0.28827600  0.76233300  0.91715100  1
  C  C36  1  0.76233300  0.03224000  0.91715100  1
  C  C37  1  0.33284900  0.96172400  0.48766700  1
  C  C38  1  0.96172400  0.33284900  0.21776000  1
  C  C39  1  0.03224000  0.76233300  0.28827600  1
  C  C40  1  0.96172400  0.21776000  0.48766700  1
  C  C41  1  0.76233300  0.91715100  0.28827600  1
  C  C42  1  0.28827600  0.03224000  0.76233300  1
  C  C43  1  0.48766700  0.33284900  0.96172400  1
  C  C44  1  0.28827600  0.91715100  0.03223900  1
  C  C45  1  0.21776100  0.48766700  0.96172400  1
  C  C46  1  0.91715100  0.28827600  0.76233300  1
  C  C47  1  0.48766700  0.21776100  0.33284900  1
  C  C48  1  0.96172400  0.48766700  0.33284900  1
  C  C49  1  0.21776100  0.33284900  0.48766700  1
  C  C50  1  0.33284900  0.48766700  0.21776000  1
  C  C51  1  0.03223900  0.28827600  0.91715100  1
  C  C52  1  0.48766700  0.96172400  0.21776000  1
  C  C53  1  0.33284900  0.21776000  0.96172400  1
  C  C54  1  0.56205000  0.31384900  0.56205000  1
  C  C55  1  0.31384900  0.56205000  0.56205000  1
  C  C56  1  0.56205000  0.56205000  0.31384900  1
  C  C57  1  0.56205000  0.56205000  0.56205000  1
