# generated using pymatgen
data_Cu(NiC3)3
_symmetry_space_group_name_H-M   'P 1'
_cell_length_a   7.31761200
_cell_length_b   5.24345200
_cell_length_c   9.41329899
_cell_angle_alpha   89.55181460
_cell_angle_beta   90.00000000
_cell_angle_gamma   90.00000000
_symmetry_Int_Tables_number   1
_chemical_formula_structural   Cu(NiC3)3
_chemical_formula_sum   'Cu2 Ni6 C18'
_cell_volume   361.17297058
_cell_formula_units_Z   2
loop_
 _symmetry_equiv_pos_site_id
 _symmetry_equiv_pos_as_xyz
  1  'x, y, z'
loop_
 _atom_site_type_symbol
 _atom_site_label
 _atom_site_symmetry_multiplicity
 _atom_site_fract_x
 _atom_site_fract_y
 _atom_site_fract_z
 _atom_site_occupancy
  Ni  Ni0  1  0.75000000  0.24111600  0.91717200  1
  Ni  Ni1  1  0.98775100  0.76199000  0.75041300  1
  Ni  Ni2  1  0.51224900  0.76199000  0.75041300  1
  Ni  Ni3  1  0.48775100  0.23801000  0.24958700  1
  Ni  Ni4  1  0.01224900  0.23801000  0.24958700  1
  Ni  Ni5  1  0.25000000  0.75888400  0.08282800  1
  Cu  Cu6  1  0.25000000  0.23916600  0.63110700  1
  Cu  Cu7  1  0.75000000  0.76083400  0.36889300  1
  C  C8  1  0.75000000  0.29936800  0.60031000  1
  C  C9  1  0.25000000  0.70063200  0.39969000  1
  C  C10  1  0.25000000  0.26674600  0.94809800  1
  C  C11  1  0.75000000  0.73325400  0.05190200  1
  C  C12  1  0.75000000  0.71682900  0.91394300  1
  C  C13  1  0.25000000  0.04318000  0.88806700  1
  C  C14  1  0.25000000  0.47488600  0.87081100  1
  C  C15  1  0.92080900  0.19013400  0.67827400  1
  C  C16  1  0.57919100  0.19013400  0.67827400  1
  C  C17  1  0.75000000  0.59568500  0.61140200  1
  C  C18  1  0.25000000  0.76383700  0.56299700  1
  C  C19  1  0.75000000  0.23616300  0.43700300  1
  C  C20  1  0.25000000  0.40431500  0.38859800  1
  C  C21  1  0.42080900  0.80986600  0.32172600  1
  C  C22  1  0.07919100  0.80986600  0.32172600  1
  C  C23  1  0.75000000  0.52511400  0.12918900  1
  C  C24  1  0.75000000  0.95682000  0.11193300  1
  C  C25  1  0.25000000  0.28317100  0.08605700  1
