# generated using pymatgen
data_Cu4Ni4C17
_symmetry_space_group_name_H-M   'P 1'
_cell_length_a   13.85102700
_cell_length_b   8.75424200
_cell_length_c   12.55645281
_cell_angle_alpha   89.24649933
_cell_angle_beta   90.00000000
_cell_angle_gamma   90.00000000
_symmetry_Int_Tables_number   1
_chemical_formula_structural   Cu4Ni4C17
_chemical_formula_sum   'Cu16 Ni16 C68'
_cell_volume   1522.40406783
_cell_formula_units_Z   4
loop_
 _symmetry_equiv_pos_site_id
 _symmetry_equiv_pos_as_xyz
  1  'x, y, z'
loop_
 _atom_site_type_symbol
 _atom_site_label
 _atom_site_symmetry_multiplicity
 _atom_site_fract_x
 _atom_site_fract_y
 _atom_site_fract_z
 _atom_site_occupancy
  C  C0  1  0.94610100  0.76109600  0.01885500  1
  C  C1  1  0.44610100  0.73890400  0.98114500  1
  C  C2  1  0.05389900  0.23890400  0.98114500  1
  C  C3  1  0.55389900  0.26109600  0.01885500  1
  C  C4  1  0.94561400  0.74342400  0.47401800  1
  C  C5  1  0.44561400  0.75657600  0.52598200  1
  C  C6  1  0.05438600  0.25657600  0.52598200  1
  C  C7  1  0.55438600  0.24342400  0.47401800  1
  C  C8  1  0.93674000  0.94324400  0.75017100  1
  C  C9  1  0.43674000  0.55675600  0.24982900  1
  C  C10  1  0.06326000  0.05675600  0.24982900  1
  C  C11  1  0.56326000  0.44324400  0.75017100  1
  C  C12  1  0.17579700  0.61773300  0.57582900  1
  C  C13  1  0.67579700  0.88226700  0.42417100  1
  C  C14  1  0.82420300  0.38226700  0.42417100  1
  C  C15  1  0.32420300  0.11773300  0.57582900  1
  C  C16  1  0.68500200  0.91263200  0.07166200  1
  C  C17  1  0.18500200  0.58736800  0.92833800  1
  C  C18  1  0.31499800  0.08736800  0.92833800  1
  C  C19  1  0.81499800  0.41263200  0.07166200  1
  Ni  Ni20  1  0.79881400  0.09579100  0.57671000  1
  Ni  Ni21  1  0.29881400  0.40420900  0.42329000  1
  Ni  Ni22  1  0.20118600  0.90420900  0.42329000  1
  Ni  Ni23  1  0.70118600  0.59579100  0.57671000  1
  Ni  Ni24  1  0.01038300  0.56887000  0.75645500  1
  Ni  Ni25  1  0.51038300  0.93113000  0.24354500  1
  Ni  Ni26  1  0.98961700  0.43113000  0.24354500  1
  Ni  Ni27  1  0.48961700  0.06887000  0.75645500  1
  Ni  Ni28  1  0.80287000  0.12844700  0.91873500  1
  Ni  Ni29  1  0.30287000  0.37155300  0.08126500  1
  Ni  Ni30  1  0.19713000  0.87155300  0.08126500  1
  Ni  Ni31  1  0.69713000  0.62844700  0.91873500  1
  Ni  Ni32  1  0.15644600  0.06975100  0.74402100  1
  Ni  Ni33  1  0.65644600  0.43024900  0.25597900  1
  Ni  Ni34  1  0.84355400  0.93024900  0.25597900  1
  Ni  Ni35  1  0.34355400  0.56975100  0.74402100  1
  Cu  Cu36  1  0.77221800  0.19031500  0.66214900  1
  Cu  Cu37  1  0.27221800  0.30968500  0.33785100  1
  Cu  Cu38  1  0.22778200  0.80968500  0.33785100  1
  Cu  Cu39  1  0.72778200  0.69031500  0.66214900  1
  Cu  Cu40  1  0.92844300  0.47305300  0.75940800  1
  Cu  Cu41  1  0.42844300  0.02694700  0.24059200  1
  Cu  Cu42  1  0.07155700  0.52694700  0.24059200  1
  Cu  Cu43  1  0.57155700  0.97305300  0.75940800  1
  Cu  Cu44  1  0.78146800  0.21946600  0.82846800  1
  Cu  Cu45  1  0.28146800  0.28053400  0.17153200  1
  Cu  Cu46  1  0.21853200  0.78053400  0.17153200  1
  Cu  Cu47  1  0.71853200  0.71946600  0.82846800  1
  Cu  Cu48  1  0.18049600  0.91429100  0.73184200  1
  Cu  Cu49  1  0.68049600  0.58570900  0.26815800  1
  Cu  Cu50  1  0.81950400  0.08570900  0.26815800  1
  Cu  Cu51  1  0.31950400  0.41429100  0.73184200  1
  C  C52  1  0.04596500  0.08691400  0.73716000  1
  C  C53  1  0.54596500  0.41308600  0.26284000  1
  C  C54  1  0.95403500  0.91308600  0.26284000  1
  C  C55  1  0.45403500  0.58691400  0.73716000  1
  C  C56  1  0.86791300  0.99590500  0.88251300  1
  C  C57  1  0.36791300  0.50409500  0.11748700  1
  C  C58  1  0.13208700  0.00409500  0.11748700  1
  C  C59  1  0.63208700  0.49590500  0.88251300  1
  C  C60  1  0.85752600  0.95902200  0.62101500  1
  C  C61  1  0.35752600  0.54097800  0.37898500  1
  C  C62  1  0.14247400  0.04097800  0.37898500  1
  C  C63  1  0.64247400  0.45902200  0.62101500  1
  C  C64  1  0.97609800  0.73203700  0.77729000  1
  C  C65  1  0.47609800  0.76796300  0.22271000  1
  C  C66  1  0.02390200  0.26796300  0.22271000  1
  C  C67  1  0.52390200  0.23203700  0.77729000  1
  C  C68  1  0.05394100  0.54811500  0.64349700  1
  C  C69  1  0.55394100  0.95188500  0.35650300  1
  C  C70  1  0.94605900  0.45188500  0.35650300  1
  C  C71  1  0.44605900  0.04811500  0.64349700  1
  C  C72  1  0.70215400  0.04651800  0.52749400  1
  C  C73  1  0.20215400  0.45348200  0.47250600  1
  C  C74  1  0.29784600  0.95348200  0.47250600  1
  C  C75  1  0.79784600  0.54651800  0.52749400  1
  C  C76  1  0.86259000  0.19360700  0.50099900  1
  C  C77  1  0.36259000  0.30639300  0.49900100  1
  C  C78  1  0.13741000  0.80639300  0.49900100  1
  C  C79  1  0.63741000  0.69360700  0.50099900  1
  C  C80  1  0.20422900  0.15922700  0.65110900  1
  C  C81  1  0.70422900  0.34077300  0.34889100  1
  C  C82  1  0.79577100  0.84077300  0.34889100  1
  C  C83  1  0.29577100  0.65922700  0.65110900  1
  C  C84  1  0.19358400  0.12023400  0.85336600  1
  C  C85  1  0.69358400  0.37976600  0.14663400  1
  C  C86  1  0.80641600  0.87976600  0.14663400  1
  C  C87  1  0.30641600  0.62023400  0.85336600  1
  C  C88  1  0.07503300  0.50667500  0.84729400  1
  C  C89  1  0.57503300  0.99332500  0.15270600  1
  C  C90  1  0.92496700  0.49332500  0.15270600  1
  C  C91  1  0.42496700  0.00667500  0.84729400  1
  C  C92  1  0.85932000  0.23084800  0.99613300  1
  C  C93  1  0.35932000  0.26915200  0.00386700  1
  C  C94  1  0.14068000  0.76915200  0.00386700  1
  C  C95  1  0.64068000  0.73084800  0.99613300  1
  C  C96  1  0.70437900  0.07484000  0.96177400  1
  C  C97  1  0.20437900  0.42516000  0.03822600  1
  C  C98  1  0.29562100  0.92516000  0.03822600  1
  C  C99  1  0.79562100  0.57484000  0.96177400  1
