# generated using pymatgen
data_Cu(NiC2)4
_symmetry_space_group_name_H-M   'P 1'
_cell_length_a   5.93628101
_cell_length_b   5.93628101
_cell_length_c   6.09678258
_cell_angle_alpha   61.75012920
_cell_angle_beta   61.75012920
_cell_angle_gamma   58.74362615
_symmetry_Int_Tables_number   1
_chemical_formula_structural   Cu(NiC2)4
_chemical_formula_sum   'Cu1 Ni4 C8'
_cell_volume   154.21179645
_cell_formula_units_Z   1
loop_
 _symmetry_equiv_pos_site_id
 _symmetry_equiv_pos_as_xyz
  1  'x, y, z'
loop_
 _atom_site_type_symbol
 _atom_site_label
 _atom_site_symmetry_multiplicity
 _atom_site_fract_x
 _atom_site_fract_y
 _atom_site_fract_z
 _atom_site_occupancy
  Ni  Ni0  1  0.50000000  0.50000000  0.50000000  1
  Ni  Ni1  1  0.00000000  0.00000000  0.00000000  1
  Ni  Ni2  1  0.00000000  0.50000000  0.00000000  1
  Ni  Ni3  1  0.50000000  0.00000000  0.00000000  1
  Cu  Cu4  1  0.50000000  0.50000000  0.00000000  1
  C  C5  1  0.72757600  0.72757600  0.81011800  1
  C  C6  1  0.72036500  0.22777100  0.80278200  1
  C  C7  1  0.22777100  0.72036500  0.80278200  1
  C  C8  1  0.25420400  0.25420400  0.78462000  1
  C  C9  1  0.74579600  0.74579600  0.21538000  1
  C  C10  1  0.77222900  0.27963500  0.19721800  1
  C  C11  1  0.27963500  0.77222900  0.19721800  1
  C  C12  1  0.27242400  0.27242400  0.18988200  1
