# generated using pymatgen
data_Cu2Ni3C23
_symmetry_space_group_name_H-M   'P 1'
_cell_length_a   5.89167800
_cell_length_b   5.90503337
_cell_length_c   9.51485674
_cell_angle_alpha   90.86184635
_cell_angle_beta   90.01855291
_cell_angle_gamma   119.26024570
_symmetry_Int_Tables_number   1
_chemical_formula_structural   Cu2Ni3C23
_chemical_formula_sum   'Cu2 Ni3 C23'
_cell_volume   288.74708699
_cell_formula_units_Z   1
loop_
 _symmetry_equiv_pos_site_id
 _symmetry_equiv_pos_as_xyz
  1  'x, y, z'
loop_
 _atom_site_type_symbol
 _atom_site_label
 _atom_site_symmetry_multiplicity
 _atom_site_fract_x
 _atom_site_fract_y
 _atom_site_fract_z
 _atom_site_occupancy
  C  C0  1  0.33474000  0.67938500  0.10259300  1
  C  C1  1  0.00363600  0.99666100  0.00579200  1
  C  C2  1  0.00112400  0.99192700  0.50600500  1
  C  C3  1  0.66247900  0.33774400  0.60216500  1
  Ni  Ni4  1  0.17217600  0.82836200  0.78629300  1
  Ni  Ni5  1  0.82647700  0.65622700  0.28428300  1
  Ni  Ni6  1  0.33715900  0.17336200  0.28717100  1
  Cu  Cu7  1  0.32879700  0.66247200  0.51114300  1
  Cu  Cu8  1  0.67232800  0.33531600  0.01186900  1
  C  C9  1  0.66191500  0.82943800  0.78589500  1
  C  C10  1  0.17073500  0.33887800  0.78658200  1
  C  C11  1  0.82799500  0.16548800  0.28721400  1
  C  C12  1  0.66684400  0.82599000  0.40196600  1
  C  C13  1  0.47269100  0.52269000  0.64915100  1
  C  C14  1  0.33273000  0.67403300  0.89524600  1
  C  C15  1  0.00420300  0.99266100  0.69393400  1
  C  C16  1  0.00028700  0.98621500  0.19464900  1
  C  C17  1  0.16605300  0.32326500  0.40523700  1
  C  C18  1  0.46730900  0.96020200  0.65854000  1
  C  C19  1  0.03690300  0.52789000  0.66084700  1
  C  C20  1  0.83354700  0.17255800  0.90748000  1
  C  C21  1  0.15198600  0.79786200  0.40825100  1
  C  C22  1  0.96130500  0.48549300  0.16049100  1
  C  C23  1  0.51647800  0.05266500  0.15452500  1
  C  C24  1  0.66476500  0.34453000  0.39167900  1
  C  C25  1  0.84245800  0.66372400  0.90031400  1
  C  C26  1  0.54648900  0.51190300  0.14987400  1
  C  C27  1  0.33668900  0.16335800  0.90296700  1
