# generated using pymatgen
data_Cu20Ni3C2
_symmetry_space_group_name_H-M   'P 1'
_cell_length_a   6.56805863
_cell_length_b   6.56805863
_cell_length_c   20.26740043
_cell_angle_alpha   86.69038897
_cell_angle_beta   86.69038897
_cell_angle_gamma   61.51936877
_symmetry_Int_Tables_number   1
_chemical_formula_structural   Cu20Ni3C2
_chemical_formula_sum   'Cu40 Ni6 C4'
_cell_volume   766.77502342
_cell_formula_units_Z   2
loop_
 _symmetry_equiv_pos_site_id
 _symmetry_equiv_pos_as_xyz
  1  'x, y, z'
loop_
 _atom_site_type_symbol
 _atom_site_label
 _atom_site_symmetry_multiplicity
 _atom_site_fract_x
 _atom_site_fract_y
 _atom_site_fract_z
 _atom_site_occupancy
  C  C0  1  0.20589500  0.19269400  0.12126800  1
  C  C1  1  0.19269400  0.20589500  0.62126800  1
  C  C2  1  0.89628300  0.89271700  0.88833500  1
  C  C3  1  0.89271700  0.89628300  0.38833500  1
  Ni  Ni4  1  0.37118800  0.71522800  0.25281600  1
  Ni  Ni5  1  0.71522800  0.37118800  0.75281600  1
  Ni  Ni6  1  0.86529100  0.85454200  0.08044300  1
  Ni  Ni7  1  0.85454200  0.86529100  0.58044300  1
  Ni  Ni8  1  0.23295300  0.22511100  0.92814400  1
  Ni  Ni9  1  0.22511100  0.23295300  0.42814400  1
  Cu  Cu10  1  0.90852300  0.87126800  0.00840600  1
  Cu  Cu11  1  0.87126800  0.90852300  0.50840600  1
  Cu  Cu12  1  0.99520600  0.95077800  0.11666700  1
  Cu  Cu13  1  0.95077800  0.99520600  0.61666700  1
  Cu  Cu14  1  0.61609700  0.98355000  0.09700300  1
  Cu  Cu15  1  0.98355000  0.61609700  0.59700300  1
  Cu  Cu16  1  0.96310100  0.60990900  0.10370100  1
  Cu  Cu17  1  0.60990900  0.96310100  0.60370100  1
  Cu  Cu18  1  0.20676700  0.21659900  0.00143200  1
  Cu  Cu19  1  0.21659900  0.20676700  0.50143200  1
  Cu  Cu20  1  0.10851400  0.10931600  0.90124900  1
  Cu  Cu21  1  0.10931600  0.10851400  0.40124900  1
  Cu  Cu22  1  0.12957500  0.47060800  0.90370600  1
  Cu  Cu23  1  0.47060800  0.12957500  0.40370600  1
  Cu  Cu24  1  0.48113800  0.10060600  0.90759000  1
  Cu  Cu25  1  0.10060600  0.48113800  0.40759000  1
  Cu  Cu26  1  0.56416200  0.64847700  0.29888000  1
  Cu  Cu27  1  0.64847700  0.56416200  0.79888000  1
  Cu  Cu28  1  0.15010200  0.78134700  0.29266200  1
  Cu  Cu29  1  0.78134700  0.15010200  0.79266200  1
  Cu  Cu30  1  0.34118800  0.91506700  0.20931300  1
  Cu  Cu31  1  0.91506700  0.34118800  0.70931300  1
  Cu  Cu32  1  0.42555700  0.51192000  0.21184100  1
  Cu  Cu33  1  0.51192000  0.42555700  0.71184100  1
  Cu  Cu34  1  0.90825500  0.68440600  0.79036200  1
  Cu  Cu35  1  0.68440600  0.90825500  0.29036200  1
  Cu  Cu36  1  0.63450800  0.62208600  0.95810400  1
  Cu  Cu37  1  0.62208600  0.63450800  0.45810400  1
  Cu  Cu38  1  0.19022300  0.88992400  0.80167500  1
  Cu  Cu39  1  0.88992400  0.19022300  0.30167500  1
  Cu  Cu40  1  0.41965500  0.69403300  0.04544000  1
  Cu  Cu41  1  0.69403300  0.41965500  0.54544000  1
  Cu  Cu42  1  0.62455700  0.44148000  0.95215200  1
  Cu  Cu43  1  0.44148000  0.62455700  0.45215200  1
  Cu  Cu44  1  0.40706400  0.16007700  0.72177600  1
  Cu  Cu45  1  0.16007700  0.40706400  0.22177600  1
  Cu  Cu46  1  0.80615900  0.30771500  0.09433200  1
  Cu  Cu47  1  0.30771500  0.80615900  0.59433200  1
  Cu  Cu48  1  0.40861700  0.51446000  0.04012200  1
  Cu  Cu49  1  0.51446000  0.40861700  0.54012200  1
