# generated using pymatgen
data_CuNiC3
_symmetry_space_group_name_H-M   'P 1'
_cell_length_a   6.98029500
_cell_length_b   11.88421300
_cell_length_c   13.48519800
_cell_angle_alpha   90.00000000
_cell_angle_beta   90.00000000
_cell_angle_gamma   90.00000000
_symmetry_Int_Tables_number   1
_chemical_formula_structural   CuNiC3
_chemical_formula_sum   'Cu16 Ni16 C48'
_cell_volume   1118.66881533
_cell_formula_units_Z   16
loop_
 _symmetry_equiv_pos_site_id
 _symmetry_equiv_pos_as_xyz
  1  'x, y, z'
loop_
 _atom_site_type_symbol
 _atom_site_label
 _atom_site_symmetry_multiplicity
 _atom_site_fract_x
 _atom_site_fract_y
 _atom_site_fract_z
 _atom_site_occupancy
  C  C0  1  0.79582200  0.85979500  0.34384000  1
  C  C1  1  0.29582200  0.64020500  0.15616000  1
  C  C2  1  0.20417800  0.64020500  0.84384000  1
  C  C3  1  0.70417800  0.85979500  0.65616000  1
  C  C4  1  0.20417800  0.14020500  0.65616000  1
  C  C5  1  0.70417800  0.35979500  0.84384000  1
  C  C6  1  0.79582200  0.35979500  0.15616000  1
  C  C7  1  0.29582200  0.14020500  0.34384000  1
  C  C8  1  0.85460100  0.58113100  0.01193800  1
  C  C9  1  0.35460100  0.91886900  0.48806200  1
  C  C10  1  0.14539900  0.91886900  0.51193800  1
  C  C11  1  0.64539900  0.58113100  0.98806200  1
  C  C12  1  0.14539900  0.41886900  0.98806200  1
  C  C13  1  0.64539900  0.08113100  0.51193800  1
  C  C14  1  0.85460100  0.08113100  0.48806200  1
  C  C15  1  0.35460100  0.41886900  0.01193800  1
  C  C16  1  0.76086100  0.64052900  0.21946900  1
  C  C17  1  0.26086100  0.85947100  0.28053100  1
  C  C18  1  0.23913900  0.85947100  0.71946900  1
  C  C19  1  0.73913900  0.64052900  0.78053100  1
  C  C20  1  0.23913900  0.35947100  0.78053100  1
  C  C21  1  0.73913900  0.14052900  0.71946900  1
  C  C22  1  0.76086100  0.14052900  0.28053100  1
  C  C23  1  0.26086100  0.35947100  0.21946900  1
  C  C24  1  0.74045700  0.73210300  0.14009900  1
  C  C25  1  0.24045700  0.76789700  0.35990100  1
  C  C26  1  0.25954300  0.76789700  0.64009900  1
  C  C27  1  0.75954300  0.73210300  0.85990100  1
  C  C28  1  0.25954300  0.26789700  0.85990100  1
  C  C29  1  0.75954300  0.23210300  0.64009900  1
  C  C30  1  0.74045700  0.23210300  0.35990100  1
  C  C31  1  0.24045700  0.26789700  0.14009900  1
  C  C32  1  0.50000000  0.00000000  0.00000000  1
  C  C33  1  0.00000000  0.50000000  0.50000000  1
  C  C34  1  0.50000000  0.50000000  0.50000000  1
  C  C35  1  0.00000000  0.00000000  0.00000000  1
  Ni  Ni36  1  0.50029600  0.83398700  0.97980400  1
  Ni  Ni37  1  0.00029600  0.66601300  0.52019600  1
  Ni  Ni38  1  0.49970400  0.66601300  0.47980400  1
  Ni  Ni39  1  0.99970400  0.83398700  0.02019600  1
  Ni  Ni40  1  0.49970400  0.16601300  0.02019600  1
  Ni  Ni41  1  0.99970400  0.33398700  0.47980400  1
  Ni  Ni42  1  0.50029600  0.33398700  0.52019600  1
  Ni  Ni43  1  0.00029600  0.16601300  0.97980400  1
  Ni  Ni44  1  0.48405400  0.97571200  0.14578900  1
  Ni  Ni45  1  0.98405400  0.52428800  0.35421100  1
  Ni  Ni46  1  0.51594600  0.52428800  0.64578900  1
  Ni  Ni47  1  0.01594600  0.97571200  0.85421100  1
  Ni  Ni48  1  0.51594600  0.02428800  0.85421100  1
  Ni  Ni49  1  0.01594600  0.47571200  0.64578900  1
  Ni  Ni50  1  0.48405400  0.47571200  0.35421100  1
  Ni  Ni51  1  0.98405400  0.02428800  0.14578900  1
  Cu  Cu52  1  0.50101400  0.73566400  0.97000700  1
  Cu  Cu53  1  0.00101400  0.76433600  0.52999300  1
  Cu  Cu54  1  0.49898600  0.76433600  0.47000700  1
  Cu  Cu55  1  0.99898600  0.73566400  0.02999300  1
  Cu  Cu56  1  0.49898600  0.26433600  0.02999300  1
  Cu  Cu57  1  0.99898600  0.23566400  0.47000700  1
  Cu  Cu58  1  0.50101400  0.23566400  0.52999300  1
  Cu  Cu59  1  0.00101400  0.26433600  0.97000700  1
  Cu  Cu60  1  0.47330600  0.96131300  0.23196200  1
  Cu  Cu61  1  0.97330600  0.53868700  0.26803800  1
  Cu  Cu62  1  0.52669400  0.53868700  0.73196200  1
  Cu  Cu63  1  0.02669400  0.96131300  0.76803800  1
  Cu  Cu64  1  0.52669400  0.03868700  0.76803800  1
  Cu  Cu65  1  0.02669400  0.46131300  0.73196200  1
  Cu  Cu66  1  0.47330600  0.46131300  0.26803800  1
  Cu  Cu67  1  0.97330600  0.03868700  0.23196200  1
  C  C68  1  0.75000000  0.52759200  0.00000000  1
  C  C69  1  0.25000000  0.97240800  0.50000000  1
  C  C70  1  0.25000000  0.47240800  0.00000000  1
  C  C71  1  0.75000000  0.02759200  0.50000000  1
  C  C72  1  0.67842800  0.70426500  0.19991300  1
  C  C73  1  0.17842800  0.79573500  0.30008700  1
  C  C74  1  0.32157200  0.79573500  0.69991300  1
  C  C75  1  0.82157200  0.70426500  0.80008700  1
  C  C76  1  0.32157200  0.29573500  0.80008700  1
  C  C77  1  0.82157200  0.20426500  0.69991300  1
  C  C78  1  0.67842800  0.20426500  0.30008700  1
  C  C79  1  0.17842800  0.29573500  0.19991300  1
