# generated using pymatgen
data_CuNiC
_symmetry_space_group_name_H-M   'P 1'
_cell_length_a   10.26853800
_cell_length_b   4.61918500
_cell_length_c   7.08885857
_cell_angle_alpha   53.16566864
_cell_angle_beta   90.00000000
_cell_angle_gamma   90.00000000
_symmetry_Int_Tables_number   1
_chemical_formula_structural   CuNiC
_chemical_formula_sum   'Cu8 Ni8 C8'
_cell_volume   269.11774156
_cell_formula_units_Z   8
loop_
 _symmetry_equiv_pos_site_id
 _symmetry_equiv_pos_as_xyz
  1  'x, y, z'
loop_
 _atom_site_type_symbol
 _atom_site_label
 _atom_site_symmetry_multiplicity
 _atom_site_fract_x
 _atom_site_fract_y
 _atom_site_fract_z
 _atom_site_occupancy
  C  C0  1  0.74888800  0.85306900  0.14950200  1
  C  C1  1  0.49002000  0.09381300  0.85658100  1
  C  C2  1  0.24761900  0.84999900  0.14994200  1
  C  C3  1  0.98702300  0.17870600  0.84142400  1
  C  C4  1  0.01297700  0.17870600  0.34142400  1
  C  C5  1  0.50998000  0.09381300  0.35658100  1
  C  C6  1  0.25111200  0.85306900  0.64950200  1
  C  C7  1  0.75238100  0.84999900  0.64994200  1
  Ni  Ni8  1  0.07883000  0.69348700  0.11251700  1
  Ni  Ni9  1  0.32852500  0.85549000  0.89207000  1
  Ni  Ni10  1  0.82972000  0.91451200  0.88141400  1
  Ni  Ni11  1  0.58304100  0.07943400  0.61789100  1
  Ni  Ni12  1  0.17028000  0.91451200  0.38141400  1
  Ni  Ni13  1  0.67147500  0.85549000  0.39207000  1
  Ni  Ni14  1  0.92117000  0.69348700  0.61251700  1
  Ni  Ni15  1  0.41695900  0.07943400  0.11789100  1
  Cu  Cu16  1  0.59836700  0.61677500  0.12059400  1
  Cu  Cu17  1  0.35311800  0.32460000  0.38590800  1
  Cu  Cu18  1  0.85110900  0.37505800  0.38069300  1
  Cu  Cu19  1  0.10566300  0.16505700  0.61146500  1
  Cu  Cu20  1  0.40163300  0.61677500  0.62059400  1
  Cu  Cu21  1  0.14889100  0.37505800  0.88069300  1
  Cu  Cu22  1  0.89433700  0.16505700  0.11146500  1
  Cu  Cu23  1  0.64688200  0.32460000  0.88590800  1
