# generated using pymatgen
data_Cu8Ni2C5
_symmetry_space_group_name_H-M   'P 1'
_cell_length_a   4.99005700
_cell_length_b   6.75596579
_cell_length_c   10.98951488
_cell_angle_alpha   99.10161488
_cell_angle_beta   91.49989067
_cell_angle_gamma   91.29920388
_symmetry_Int_Tables_number   1
_chemical_formula_structural   Cu8Ni2C5
_chemical_formula_sum   'Cu16 Ni4 C10'
_cell_volume   365.56076437
_cell_formula_units_Z   2
loop_
 _symmetry_equiv_pos_site_id
 _symmetry_equiv_pos_as_xyz
  1  'x, y, z'
loop_
 _atom_site_type_symbol
 _atom_site_label
 _atom_site_symmetry_multiplicity
 _atom_site_fract_x
 _atom_site_fract_y
 _atom_site_fract_z
 _atom_site_occupancy
  C  C0  1  0.00000000  0.00000000  0.50000000  1
  C  C1  1  0.00000000  0.00000000  0.00000000  1
  C  C2  1  0.21276700  0.36193200  0.00702800  1
  C  C3  1  0.29070700  0.34811200  0.55194700  1
  C  C4  1  0.44081900  0.22290800  0.04360600  1
  C  C5  1  0.44775200  0.20453800  0.44752700  1
  C  C6  1  0.55224800  0.79546200  0.55247300  1
  C  C7  1  0.55918100  0.77709200  0.95639400  1
  C  C8  1  0.70929300  0.65188800  0.44805300  1
  C  C9  1  0.78723300  0.63806800  0.99297200  1
  Ni  Ni10  1  0.10999600  0.71130500  0.72918700  1
  Ni  Ni11  1  0.35722600  0.77115300  0.22858900  1
  Ni  Ni12  1  0.64277400  0.22884700  0.77141100  1
  Ni  Ni13  1  0.89000400  0.28869500  0.27081300  1
  Cu  Cu14  1  0.15182000  0.56534600  0.14378500  1
  Cu  Cu15  1  0.20310000  0.98567600  0.16843300  1
  Cu  Cu16  1  0.20206500  0.79173500  0.37900700  1
  Cu  Cu17  1  0.24565400  0.79475700  0.88726900  1
  Cu  Cu18  1  0.25872200  0.90334300  0.64495300  1
  Cu  Cu19  1  0.26687800  0.23901700  0.47854500  1
  Cu  Cu20  1  0.29157000  0.22852800  0.98210000  1
  Cu  Cu21  1  0.34831900  0.51497000  0.67981500  1
  Cu  Cu22  1  0.65168100  0.48503000  0.32018500  1
  Cu  Cu23  1  0.70843000  0.77147200  0.01790000  1
  Cu  Cu24  1  0.73312200  0.76098300  0.52145500  1
  Cu  Cu25  1  0.74127800  0.09665700  0.35504700  1
  Cu  Cu26  1  0.75434600  0.20524300  0.11273100  1
  Cu  Cu27  1  0.79793500  0.20826500  0.62099300  1
  Cu  Cu28  1  0.79690000  0.01432400  0.83156700  1
  Cu  Cu29  1  0.84818000  0.43465400  0.85621500  1
