# generated using pymatgen
data_Cu3(NiC2)2
_symmetry_space_group_name_H-M   'P 1'
_cell_length_a   16.72274900
_cell_length_b   5.89749300
_cell_length_c   6.23977870
_cell_angle_alpha   88.51463578
_cell_angle_beta   90.00000000
_cell_angle_gamma   90.00000000
_symmetry_Int_Tables_number   1
_chemical_formula_structural   Cu3(NiC2)2
_chemical_formula_sum   'Cu12 Ni8 C16'
_cell_volume   615.17451537
_cell_formula_units_Z   4
loop_
 _symmetry_equiv_pos_site_id
 _symmetry_equiv_pos_as_xyz
  1  'x, y, z'
loop_
 _atom_site_type_symbol
 _atom_site_label
 _atom_site_symmetry_multiplicity
 _atom_site_fract_x
 _atom_site_fract_y
 _atom_site_fract_z
 _atom_site_occupancy
  C  C0  1  0.28123300  0.94399100  0.17480900  1
  C  C1  1  0.78123300  0.55600900  0.82519100  1
  C  C2  1  0.71876700  0.05600900  0.82519100  1
  C  C3  1  0.21876700  0.44399100  0.17480900  1
  C  C4  1  0.34731500  0.14543300  0.21741000  1
  C  C5  1  0.84731500  0.35456700  0.78259000  1
  C  C6  1  0.65268500  0.85456700  0.78259000  1
  C  C7  1  0.15268500  0.64543300  0.21741000  1
  C  C8  1  0.34131900  0.02921800  0.97794700  1
  C  C9  1  0.84131900  0.47078200  0.02205300  1
  C  C10  1  0.65868100  0.97078200  0.02205300  1
  C  C11  1  0.15868100  0.52921800  0.97794700  1
  C  C12  1  0.44185500  0.68752100  0.22309200  1
  C  C13  1  0.94185500  0.81247900  0.77690800  1
  C  C14  1  0.55814500  0.31247900  0.77690800  1
  C  C15  1  0.05814500  0.18752100  0.22309200  1
  Ni  Ni16  1  0.45558600  0.78627000  0.65411800  1
  Ni  Ni17  1  0.95558600  0.71373000  0.34588200  1
  Ni  Ni18  1  0.54441400  0.21373000  0.34588200  1
  Ni  Ni19  1  0.04441400  0.28627000  0.65411800  1
  Ni  Ni20  1  0.32555300  0.47576300  0.62036300  1
  Ni  Ni21  1  0.82555300  0.02423700  0.37963700  1
  Ni  Ni22  1  0.67444700  0.52423700  0.37963700  1
  Ni  Ni23  1  0.17444700  0.97576300  0.62036300  1
  Cu  Cu24  1  0.38090500  0.62797800  0.76623800  1
  Cu  Cu25  1  0.88090500  0.87202200  0.23376200  1
  Cu  Cu26  1  0.61909500  0.37202200  0.23376200  1
  Cu  Cu27  1  0.11909500  0.12797800  0.76623800  1
  Cu  Cu28  1  0.33878000  0.47526200  0.37821100  1
  Cu  Cu29  1  0.83878000  0.02473800  0.62178900  1
  Cu  Cu30  1  0.66122000  0.52473800  0.62178900  1
  Cu  Cu31  1  0.16122000  0.97526200  0.37821100  1
  Cu  Cu32  1  0.33849800  0.99600300  0.13899200  1
  Cu  Cu33  1  0.83849800  0.50399700  0.86100800  1
  Cu  Cu34  1  0.66150200  0.00399700  0.86100800  1
  Cu  Cu35  1  0.16150200  0.49600300  0.13899200  1
