# generated using pymatgen
data_Cu(NiC4)5
_symmetry_space_group_name_H-M   'P 1'
_cell_length_a   8.51666449
_cell_length_b   8.50060418
_cell_length_c   8.83872421
_cell_angle_alpha   91.32790356
_cell_angle_beta   88.22553786
_cell_angle_gamma   75.27741065
_symmetry_Int_Tables_number   1
_chemical_formula_structural   Cu(NiC4)5
_chemical_formula_sum   'Cu2 Ni10 C40'
_cell_volume   618.27019727
_cell_formula_units_Z   2
loop_
 _symmetry_equiv_pos_site_id
 _symmetry_equiv_pos_as_xyz
  1  'x, y, z'
loop_
 _atom_site_type_symbol
 _atom_site_label
 _atom_site_symmetry_multiplicity
 _atom_site_fract_x
 _atom_site_fract_y
 _atom_site_fract_z
 _atom_site_occupancy
  Ni  Ni0  1  0.48812000  0.26332100  0.91475300  1
  Ni  Ni1  1  0.98790200  0.76356600  0.91468900  1
  Ni  Ni2  1  0.13436200  0.87434200  0.26604200  1
  Ni  Ni3  1  0.63435700  0.37460600  0.26643600  1
  Ni  Ni4  1  0.37526400  0.11709100  0.26392500  1
  Ni  Ni5  1  0.87483800  0.61706300  0.26420800  1
  Ni  Ni6  1  0.86403900  0.12748400  0.72876500  1
  Ni  Ni7  1  0.36364800  0.62832300  0.72841300  1
  Ni  Ni8  1  0.62139200  0.88405800  0.73104100  1
  Ni  Ni9  1  0.12195700  0.38457200  0.73109900  1
  Cu  Cu10  1  0.51289500  0.73842600  0.10639500  1
  Cu  Cu11  1  0.01279600  0.23696400  0.10604100  1
  C  C12  1  0.76319600  0.98650400  0.34355200  1
  C  C13  1  0.26276800  0.48633300  0.34383000  1
  C  C14  1  0.73713700  0.51888100  0.64806100  1
  C  C15  1  0.23660800  0.02051700  0.64582000  1
  C  C16  1  0.48484100  0.76455100  0.41018200  1
  C  C17  1  0.98434300  0.26504500  0.41035200  1
  C  C18  1  0.51312600  0.23719400  0.58282800  1
  C  C19  1  0.01293300  0.73740500  0.58261200  1
  C  C20  1  0.73101700  0.01872600  0.05904500  1
  C  C21  1  0.23138700  0.51830900  0.05898800  1
  C  C22  1  0.27220800  0.97765300  0.94893700  1
  C  C23  1  0.77222800  0.47784400  0.94990600  1
  C  C24  1  0.32097700  0.93034100  0.08180800  1
  C  C25  1  0.82079800  0.42981200  0.08259400  1
  C  C26  1  0.84450600  0.90545100  0.11624800  1
  C  C27  1  0.34407900  0.40431600  0.11617400  1
  C  C28  1  0.63198700  0.11935300  0.15410400  1
  C  C29  1  0.13264800  0.61930600  0.15402100  1
  C  C30  1  0.44484000  0.30351800  0.43041200  1
  C  C31  1  0.94511400  0.80305600  0.42990600  1
  C  C32  1  0.33548400  0.91252600  0.44411100  1
  C  C33  1  0.83596200  0.41392200  0.44317300  1
  C  C34  1  0.66151800  0.08666200  0.55097700  1
  C  C35  1  0.16204800  0.58733600  0.55115300  1
  C  C36  1  0.55358200  0.69693800  0.56251900  1
  C  C37  1  0.05177600  0.19771000  0.56341200  1
  C  C38  1  0.34833400  0.89599700  0.82874800  1
  C  C39  1  0.84828500  0.39626000  0.82961100  1
  C  C40  1  0.15044700  0.10270400  0.93156000  1
  C  C41  1  0.65113500  0.60353500  0.93249900  1
  C  C42  1  0.71670700  0.03128200  0.91483100  1
  C  C43  1  0.21736700  0.53137200  0.91475100  1
  C  C44  1  0.43174500  0.63538300  0.30929500  1
  C  C45  1  0.93149500  0.13551500  0.30961400  1
  C  C46  1  0.61341900  0.81917600  0.30868000  1
  C  C47  1  0.11413200  0.31815000  0.30906700  1
  C  C48  1  0.38206600  0.18303500  0.68270600  1
  C  C49  1  0.88251700  0.68190300  0.68216900  1
  C  C50  1  0.56789900  0.36773300  0.68015900  1
  C  C51  1  0.06577100  0.86892400  0.67977800  1
