# generated using pymatgen
data_Cu3NiC3
_symmetry_space_group_name_H-M   'P 1'
_cell_length_a   5.22686500
_cell_length_b   9.58365584
_cell_length_c   6.06138141
_cell_angle_alpha   93.23640227
_cell_angle_beta   90.00044840
_cell_angle_gamma   90.00081967
_symmetry_Int_Tables_number   1
_chemical_formula_structural   Cu3NiC3
_chemical_formula_sum   'Cu12 Ni4 C12'
_cell_volume   303.14533863
_cell_formula_units_Z   4
loop_
 _symmetry_equiv_pos_site_id
 _symmetry_equiv_pos_as_xyz
  1  'x, y, z'
loop_
 _atom_site_type_symbol
 _atom_site_label
 _atom_site_symmetry_multiplicity
 _atom_site_fract_x
 _atom_site_fract_y
 _atom_site_fract_z
 _atom_site_occupancy
  C  C0  1  0.47184400  0.81951100  0.24172400  1
  C  C1  1  0.47184300  0.81950800  0.74172000  1
  C  C2  1  0.02816200  0.31950500  0.24172000  1
  C  C3  1  0.02816200  0.31951000  0.74172400  1
  C  C4  1  0.03132300  0.68623800  0.26205900  1
  C  C5  1  0.03132900  0.68623400  0.76205700  1
  C  C6  1  0.46867700  0.18623200  0.26205600  1
  C  C7  1  0.46868300  0.18623500  0.76206100  1
  C  C8  1  0.51777400  0.51374800  0.99726000  1
  C  C9  1  0.98222800  0.01373900  0.49726700  1
  C  C10  1  0.51773400  0.51373800  0.49724900  1
  C  C11  1  0.98226300  0.01374200  0.99723700  1
  Ni  Ni12  1  0.38918800  0.61716900  0.23512100  1
  Ni  Ni13  1  0.38919600  0.61716000  0.73509600  1
  Ni  Ni14  1  0.11080400  0.11716300  0.23509600  1
  Ni  Ni15  1  0.11081200  0.11717100  0.73511400  1
  Cu  Cu16  1  0.85915700  0.61586400  0.00703700  1
  Cu  Cu17  1  0.85919400  0.61588700  0.50705100  1
  Cu  Cu18  1  0.64080400  0.11588600  0.00705000  1
  Cu  Cu19  1  0.64080200  0.11588700  0.50705500  1
  Cu  Cu20  1  0.26432800  0.86253000  0.49553700  1
  Cu  Cu21  1  0.26433600  0.86252500  0.99553300  1
  Cu  Cu22  1  0.23566700  0.36252600  0.49553400  1
  Cu  Cu23  1  0.23567600  0.36253000  0.99553800  1
  Cu  Cu24  1  0.82537800  0.88494000  0.26128000  1
  Cu  Cu25  1  0.82537800  0.88493600  0.76126800  1
  Cu  Cu26  1  0.67462900  0.38494200  0.26127300  1
  Cu  Cu27  1  0.67462800  0.38494200  0.76128000  1
