# generated using pymatgen
data_Cu3NiC11
_symmetry_space_group_name_H-M   'P 1'
_cell_length_a   5.91843606
_cell_length_b   5.91843606
_cell_length_c   9.61660500
_cell_angle_alpha   90.00000000
_cell_angle_beta   90.00000000
_cell_angle_gamma   120.00000071
_symmetry_Int_Tables_number   1
_chemical_formula_structural   Cu3NiC11
_chemical_formula_sum   'Cu6 Ni2 C22'
_cell_volume   291.72008208
_cell_formula_units_Z   2
loop_
 _symmetry_equiv_pos_site_id
 _symmetry_equiv_pos_as_xyz
  1  'x, y, z'
loop_
 _atom_site_type_symbol
 _atom_site_label
 _atom_site_symmetry_multiplicity
 _atom_site_fract_x
 _atom_site_fract_y
 _atom_site_fract_z
 _atom_site_occupancy
  C  C0  1  0.82398700  0.17601300  0.55833800  1
  C  C1  1  0.82398700  0.64797300  0.55833800  1
  C  C2  1  0.35202700  0.17601300  0.55833800  1
  C  C3  1  0.64797300  0.82398700  0.05833800  1
  C  C4  1  0.17601300  0.35202700  0.05833800  1
  C  C5  1  0.17601300  0.82398700  0.05833800  1
  Ni  Ni6  1  0.66666700  0.33333300  0.00260000  1
  Ni  Ni7  1  0.33333300  0.66666700  0.50260000  1
  Cu  Cu8  1  0.83053700  0.16946300  0.28484300  1
  Cu  Cu9  1  0.83053700  0.66107500  0.28484300  1
  Cu  Cu10  1  0.33892500  0.16946300  0.28484300  1
  Cu  Cu11  1  0.66107500  0.83053700  0.78484300  1
  Cu  Cu12  1  0.16946300  0.33892500  0.78484300  1
  Cu  Cu13  1  0.16946300  0.83053700  0.78484300  1
  C  C14  1  0.83261300  0.16738700  0.90915200  1
  C  C15  1  0.96355700  0.48177800  0.15414300  1
  C  C16  1  0.83261300  0.66522600  0.90915200  1
  C  C17  1  0.00000000  0.00000000  0.67729000  1
  C  C18  1  0.66666700  0.33333300  0.40470400  1
  C  C19  1  0.00000000  0.00000000  0.17729000  1
  C  C20  1  0.51822200  0.03644300  0.15414300  1
  C  C21  1  0.51822200  0.48177800  0.15414300  1
  C  C22  1  0.33477400  0.16738700  0.90915200  1
  C  C23  1  0.66522600  0.83261300  0.40915200  1
  C  C24  1  0.48177800  0.51822200  0.65414300  1
  C  C25  1  0.33333300  0.66666700  0.90470400  1
  C  C26  1  0.16738700  0.33477400  0.40915200  1
  C  C27  1  0.48177800  0.96355700  0.65414300  1
  C  C28  1  0.03644300  0.51822200  0.65414300  1
  C  C29  1  0.16738700  0.83261300  0.40915200  1
