# generated using pymatgen
data_Cu2NiC7
_symmetry_space_group_name_H-M   'P 1'
_cell_length_a   7.14464900
_cell_length_b   8.47112900
_cell_length_c   19.51156700
_cell_angle_alpha   90.00000000
_cell_angle_beta   90.00000000
_cell_angle_gamma   90.00000000
_symmetry_Int_Tables_number   1
_chemical_formula_structural   Cu2NiC7
_chemical_formula_sum   'Cu16 Ni8 C56'
_cell_volume   1180.90331746
_cell_formula_units_Z   8
loop_
 _symmetry_equiv_pos_site_id
 _symmetry_equiv_pos_as_xyz
  1  'x, y, z'
loop_
 _atom_site_type_symbol
 _atom_site_label
 _atom_site_symmetry_multiplicity
 _atom_site_fract_x
 _atom_site_fract_y
 _atom_site_fract_z
 _atom_site_occupancy
  C  C0  1  0.91664200  0.65673900  0.00000000  1
  C  C1  1  0.08335800  0.34326100  0.50000000  1
  C  C2  1  0.91664200  0.84326100  0.50000000  1
  C  C3  1  0.08335800  0.15673900  0.00000000  1
  C  C4  1  0.41524200  0.55830000  0.08659800  1
  C  C5  1  0.58475800  0.44170000  0.58659800  1
  C  C6  1  0.41524200  0.94170000  0.58659800  1
  C  C7  1  0.58475800  0.05830000  0.08659800  1
  Ni  Ni8  1  0.69021700  0.34671300  0.29946400  1
  Ni  Ni9  1  0.30978300  0.65328700  0.79946400  1
  Ni  Ni10  1  0.69021700  0.15328700  0.79946400  1
  Ni  Ni11  1  0.30978300  0.84671300  0.29946400  1
  Ni  Ni12  1  0.21483600  0.89686100  0.78371900  1
  Ni  Ni13  1  0.78516400  0.10313900  0.28371900  1
  Ni  Ni14  1  0.21483600  0.60313900  0.28371900  1
  Ni  Ni15  1  0.78516400  0.39686100  0.78371900  1
  Cu  Cu16  1  0.92863800  0.40843300  0.13789700  1
  Cu  Cu17  1  0.07136200  0.59156700  0.63789700  1
  Cu  Cu18  1  0.92863800  0.09156700  0.63789700  1
  Cu  Cu19  1  0.07136200  0.90843300  0.13789700  1
  Cu  Cu20  1  0.40900300  0.33791700  0.23680800  1
  Cu  Cu21  1  0.59099700  0.66208300  0.73680800  1
  Cu  Cu22  1  0.40900300  0.16208300  0.73680800  1
  Cu  Cu23  1  0.59099700  0.83791700  0.23680800  1
  Cu  Cu24  1  0.94133200  0.87263000  0.85273900  1
  Cu  Cu25  1  0.05866800  0.12737000  0.35273900  1
  Cu  Cu26  1  0.94133200  0.62737000  0.35273900  1
  Cu  Cu27  1  0.05866800  0.37263000  0.85273900  1
  Cu  Cu28  1  0.43415000  0.80644000  0.94925500  1
  Cu  Cu29  1  0.56585000  0.19356000  0.44925500  1
  Cu  Cu30  1  0.43415000  0.69356000  0.44925500  1
  Cu  Cu31  1  0.56585000  0.30644000  0.94925500  1
  C  C32  1  0.76125900  0.53589200  0.10509600  1
  C  C33  1  0.23874100  0.46410800  0.60509600  1
  C  C34  1  0.76125900  0.96410800  0.60509600  1
  C  C35  1  0.23874100  0.03589200  0.10509600  1
  C  C36  1  0.09466500  0.42958700  0.07187200  1
  C  C37  1  0.90533500  0.57041300  0.57187200  1
  C  C38  1  0.09466500  0.07041300  0.57187200  1
  C  C39  1  0.90533500  0.92958700  0.07187200  1
  C  C40  1  0.86512300  0.22146900  0.11458300  1
  C  C41  1  0.13487700  0.77853100  0.61458300  1
  C  C42  1  0.86512300  0.27853100  0.61458300  1
  C  C43  1  0.13487700  0.72146900  0.11458300  1
  C  C44  1  0.48777300  0.30151400  0.15569800  1
  C  C45  1  0.51222700  0.69848600  0.65569800  1
  C  C46  1  0.48777300  0.19848600  0.65569800  1
  C  C47  1  0.51222700  0.80151400  0.15569800  1
  C  C48  1  0.29905000  0.51074500  0.21886800  1
  C  C49  1  0.70095000  0.48925500  0.71886800  1
  C  C50  1  0.29905000  0.98925500  0.71886800  1
  C  C51  1  0.70095000  0.01074500  0.21886800  1
  C  C52  1  0.60777600  0.43044600  0.27957900  1
  C  C53  1  0.39222400  0.56955400  0.77957900  1
  C  C54  1  0.60777600  0.06955400  0.77957900  1
  C  C55  1  0.39222400  0.93044600  0.27957900  1
  C  C56  1  0.17544500  0.81877600  0.82152600  1
  C  C57  1  0.82455500  0.18122400  0.32152600  1
  C  C58  1  0.17544500  0.68122400  0.32152600  1
  C  C59  1  0.82455500  0.31877600  0.82152600  1
  C  C60  1  0.98072600  0.91705300  0.93689800  1
  C  C61  1  0.01927400  0.08294700  0.43689800  1
  C  C62  1  0.98072600  0.58294700  0.43689800  1
  C  C63  1  0.01927400  0.41705300  0.93689800  1
  C  C64  1  0.85385600  0.69008600  0.86594400  1
  C  C65  1  0.14614400  0.30991400  0.36594400  1
  C  C66  1  0.85385600  0.80991400  0.36594400  1
  C  C67  1  0.14614400  0.19008600  0.86594400  1
  C  C68  1  0.36649300  0.99327600  0.97103600  1
  C  C69  1  0.63350700  0.00672400  0.47103600  1
  C  C70  1  0.36649300  0.50672400  0.47103600  1
  C  C71  1  0.63350700  0.49327600  0.97103600  1
  C  C72  1  0.26474200  0.67904000  0.98097100  1
  C  C73  1  0.73525800  0.32096000  0.48097100  1
  C  C74  1  0.26474200  0.82096000  0.48097100  1
  C  C75  1  0.73525800  0.17904000  0.98097100  1
  C  C76  1  0.59454000  0.78568500  0.01779000  1
  C  C77  1  0.40546000  0.21431500  0.51779000  1
  C  C78  1  0.59454000  0.71431500  0.51779000  1
  C  C79  1  0.40546000  0.28568500  0.01779000  1
