# generated using pymatgen
data_CuNiC11
_symmetry_space_group_name_H-M   'P 1'
_cell_length_a   6.60255100
_cell_length_b   8.98842294
_cell_length_c   10.38355686
_cell_angle_alpha   90.97070026
_cell_angle_beta   90.19428682
_cell_angle_gamma   90.56235836
_symmetry_Int_Tables_number   1
_chemical_formula_structural   CuNiC11
_chemical_formula_sum   'Cu4 Ni4 C44'
_cell_volume   616.10596199
_cell_formula_units_Z   4
loop_
 _symmetry_equiv_pos_site_id
 _symmetry_equiv_pos_as_xyz
  1  'x, y, z'
loop_
 _atom_site_type_symbol
 _atom_site_label
 _atom_site_symmetry_multiplicity
 _atom_site_fract_x
 _atom_site_fract_y
 _atom_site_fract_z
 _atom_site_occupancy
  C  C0  1  0.24609200  0.91756100  0.62946400  1
  C  C1  1  0.24860800  0.91684500  0.13098500  1
  C  C2  1  0.49865600  0.73997100  0.37427800  1
  C  C3  1  0.00106500  0.73949200  0.87466200  1
  C  C4  1  0.49928100  0.73893700  0.87424300  1
  C  C5  1  0.50134400  0.26002900  0.62572200  1
  C  C6  1  0.50071900  0.26106300  0.12575700  1
  C  C7  1  0.99893500  0.26050800  0.12533800  1
  C  C8  1  0.75390800  0.08243900  0.37053600  1
  C  C9  1  0.75139200  0.08315500  0.86901500  1
  C  C10  1  0.00403200  0.73171000  0.37258800  1
  C  C11  1  0.99596900  0.26829000  0.62741200  1
  C  C12  1  0.75009000  0.64441200  0.64117800  1
  C  C13  1  0.75193800  0.64493800  0.14377200  1
  C  C14  1  0.24991000  0.35558800  0.35882200  1
  C  C15  1  0.24806200  0.35506200  0.85622800  1
  Ni  Ni16  1  0.24332300  0.58525700  0.59827900  1
  Ni  Ni17  1  0.24988100  0.58644800  0.10140600  1
  Ni  Ni18  1  0.75667700  0.41474300  0.40172100  1
  Ni  Ni19  1  0.75011900  0.41355200  0.89859400  1
  Cu  Cu20  1  0.75712400  0.94265900  0.61544100  1
  Cu  Cu21  1  0.75071100  0.93968900  0.11657300  1
  Cu  Cu22  1  0.24287600  0.05734100  0.38455900  1
  Cu  Cu23  1  0.24928900  0.06031100  0.88342700  1
  C  C24  1  0.23484900  0.91277200  0.39144000  1
  C  C25  1  0.25158600  0.91663600  0.89126900  1
  C  C26  1  0.75018100  0.87901900  0.72702500  1
  C  C27  1  0.75188200  0.87692000  0.22886700  1
  C  C28  1  0.75512600  0.85971400  0.51137900  1
  C  C29  1  0.75184000  0.85673200  0.01287100  1
  C  C30  1  0.06138500  0.68205100  0.64356400  1
  C  C31  1  0.43685800  0.67550700  0.64064000  1
  C  C32  1  0.06432300  0.68143700  0.14526800  1
  C  C33  1  0.44008000  0.68114600  0.14202100  1
  C  C34  1  0.23847900  0.57169300  0.44815500  1
  C  C35  1  0.76391700  0.57170400  0.34225800  1
  C  C36  1  0.24721300  0.56704400  0.95191700  1
  C  C37  1  0.74996600  0.56726400  0.83541700  1
  C  C38  1  0.23608300  0.42829600  0.65774200  1
  C  C39  1  0.76152100  0.42830700  0.55184500  1
  C  C40  1  0.25003400  0.43273600  0.16458300  1
  C  C41  1  0.75278700  0.43295600  0.04808300  1
  C  C42  1  0.56314200  0.32449300  0.35936000  1
  C  C43  1  0.93861500  0.31794900  0.35643600  1
  C  C44  1  0.55992000  0.31885400  0.85797900  1
  C  C45  1  0.93567700  0.31856300  0.85473200  1
  C  C46  1  0.24487400  0.14028600  0.48862100  1
  C  C47  1  0.24816000  0.14326800  0.98712900  1
  C  C48  1  0.24981900  0.12098100  0.27297500  1
  C  C49  1  0.24811800  0.12308000  0.77113300  1
  C  C50  1  0.76515100  0.08722800  0.60856000  1
  C  C51  1  0.74841400  0.08336400  0.10873100  1
