# generated using pymatgen
data_Cu6Ni2C19
_symmetry_space_group_name_H-M   'P 1'
_cell_length_a   5.11179900
_cell_length_b   11.63319300
_cell_length_c   13.25085700
_cell_angle_alpha   90.00000000
_cell_angle_beta   90.00000000
_cell_angle_gamma   90.00000000
_symmetry_Int_Tables_number   1
_chemical_formula_structural   Cu6Ni2C19
_chemical_formula_sum   'Cu12 Ni4 C38'
_cell_volume   787.98267539
_cell_formula_units_Z   2
loop_
 _symmetry_equiv_pos_site_id
 _symmetry_equiv_pos_as_xyz
  1  'x, y, z'
loop_
 _atom_site_type_symbol
 _atom_site_label
 _atom_site_symmetry_multiplicity
 _atom_site_fract_x
 _atom_site_fract_y
 _atom_site_fract_z
 _atom_site_occupancy
  Ni  Ni0  1  0.00000000  0.25000000  0.75000000  1
  Ni  Ni1  1  0.00000000  0.25000000  0.25000000  1
  Ni  Ni2  1  0.00000000  0.75000000  0.75000000  1
  Ni  Ni3  1  0.00000000  0.75000000  0.25000000  1
  Cu  Cu4  1  0.05896400  0.00000000  0.88727900  1
  Cu  Cu5  1  0.05896400  0.00000000  0.11272100  1
  Cu  Cu6  1  0.94103600  0.50000000  0.61272100  1
  Cu  Cu7  1  0.94103600  0.50000000  0.38727900  1
  Cu  Cu8  1  0.50383200  0.37183100  0.88679800  1
  Cu  Cu9  1  0.50383200  0.37183100  0.11320200  1
  Cu  Cu10  1  0.50383200  0.62816900  0.88679800  1
  Cu  Cu11  1  0.50383200  0.62816900  0.11320200  1
  Cu  Cu12  1  0.49616800  0.12816900  0.61320200  1
  Cu  Cu13  1  0.49616800  0.12816900  0.38679800  1
  Cu  Cu14  1  0.49616800  0.87183100  0.61320200  1
  Cu  Cu15  1  0.49616800  0.87183100  0.38679800  1
  C  C16  1  0.62632000  0.50000000  0.88543400  1
  C  C17  1  0.62632000  0.50000000  0.11456600  1
  C  C18  1  0.37368000  0.00000000  0.61456600  1
  C  C19  1  0.37368000  0.00000000  0.38543400  1
  C  C20  1  0.27164400  0.36768100  0.81809400  1
  C  C21  1  0.27164400  0.36768100  0.18190600  1
  C  C22  1  0.27164400  0.63231900  0.81809400  1
  C  C23  1  0.27164400  0.63231900  0.18190600  1
  C  C24  1  0.72835600  0.13231900  0.68190600  1
  C  C25  1  0.72835600  0.13231900  0.31809400  1
  C  C26  1  0.72835600  0.86768100  0.68190600  1
  C  C27  1  0.72835600  0.86768100  0.31809400  1
  C  C28  1  0.39200700  0.35904300  0.00000000  1
  C  C29  1  0.39200700  0.64095700  0.00000000  1
  C  C30  1  0.60799300  0.14095700  0.50000000  1
  C  C31  1  0.60799300  0.85904300  0.50000000  1
  C  C32  1  0.72751300  0.28969900  0.87169600  1
  C  C33  1  0.72751300  0.28969900  0.12830400  1
  C  C34  1  0.72751300  0.71030100  0.87169600  1
  C  C35  1  0.72751300  0.71030100  0.12830400  1
  C  C36  1  0.27248700  0.21030100  0.62830400  1
  C  C37  1  0.27248700  0.21030100  0.37169600  1
  C  C38  1  0.27248700  0.78969900  0.62830400  1
  C  C39  1  0.27248700  0.78969900  0.37169600  1
  C  C40  1  0.75737300  0.00000000  0.88527800  1
  C  C41  1  0.75737300  0.00000000  0.11472200  1
  C  C42  1  0.24262700  0.50000000  0.61472200  1
  C  C43  1  0.24262700  0.50000000  0.38527800  1
  C  C44  1  0.15646000  0.11112200  0.83999700  1
  C  C45  1  0.15646000  0.11112200  0.16000300  1
  C  C46  1  0.15646000  0.88887800  0.83999700  1
  C  C47  1  0.15646000  0.88887800  0.16000300  1
  C  C48  1  0.84354000  0.38887800  0.66000300  1
  C  C49  1  0.84354000  0.38887800  0.33999700  1
  C  C50  1  0.84354000  0.61112200  0.66000300  1
  C  C51  1  0.84354000  0.61112200  0.33999700  1
  C  C52  1  0.17247500  0.00000000  0.00000000  1
  C  C53  1  0.82752500  0.50000000  0.50000000  1
