# generated using pymatgen
data_Cu7Ni5C6
_symmetry_space_group_name_H-M   'P 1'
_cell_length_a   5.17856600
_cell_length_b   5.73924488
_cell_length_c   14.42501085
_cell_angle_alpha   88.90916835
_cell_angle_beta   87.39449948
_cell_angle_gamma   89.93336242
_symmetry_Int_Tables_number   1
_chemical_formula_structural   Cu7Ni5C6
_chemical_formula_sum   'Cu14 Ni10 C12'
_cell_volume   428.20574054
_cell_formula_units_Z   2
loop_
 _symmetry_equiv_pos_site_id
 _symmetry_equiv_pos_as_xyz
  1  'x, y, z'
loop_
 _atom_site_type_symbol
 _atom_site_label
 _atom_site_symmetry_multiplicity
 _atom_site_fract_x
 _atom_site_fract_y
 _atom_site_fract_z
 _atom_site_occupancy
  C  C0  1  0.03202300  0.12526400  0.00921300  1
  C  C1  1  0.50866200  0.84870000  0.16852800  1
  C  C2  1  0.99302400  0.11454600  0.33032300  1
  C  C3  1  0.48943800  0.89404200  0.50365600  1
  C  C4  1  0.98779300  0.14548600  0.66650500  1
  C  C5  1  0.48914000  0.96167600  0.82696300  1
  C  C6  1  0.00882800  0.55795500  0.16745500  1
  C  C7  1  0.52574800  0.41935400  0.00816200  1
  C  C8  1  0.47385300  0.42492100  0.66111700  1
  C  C9  1  0.96100600  0.54921000  0.49686400  1
  C  C10  1  0.49932900  0.39602400  0.32500600  1
  C  C11  1  0.02044000  0.48942100  0.83163200  1
  Ni  Ni12  1  0.26587900  0.20384100  0.74462900  1
  Ni  Ni13  1  0.83984300  0.36510700  0.07703300  1
  Ni  Ni14  1  0.18166800  0.35587400  0.26022000  1
  Ni  Ni15  1  0.15705400  0.37266500  0.58782400  1
  Ni  Ni16  1  0.21974300  0.36254700  0.94183400  1
  Ni  Ni17  1  0.80285200  0.34865100  0.39681700  1
  Ni  Ni18  1  0.78501400  0.36522800  0.73028000  1
  Ni  Ni19  1  0.65113800  0.61424800  0.56657600  1
  Ni  Ni20  1  0.68192800  0.61142500  0.23769700  1
  Ni  Ni21  1  0.33437000  0.61931800  0.09885800  1
  Cu  Cu22  1  0.65669900  0.08950100  0.24932000  1
  Cu  Cu23  1  0.36805600  0.10430600  0.09156100  1
  Cu  Cu24  1  0.70092400  0.16644900  0.92281300  1
  Cu  Cu25  1  0.68513800  0.12384200  0.58690800  1
  Cu  Cu26  1  0.33566400  0.13546800  0.40996500  1
  Cu  Cu27  1  0.69670700  0.63834300  0.90346200  1
  Cu  Cu28  1  0.29692400  0.62384800  0.42475700  1
  Cu  Cu29  1  0.32058300  0.67716200  0.75826300  1
  Cu  Cu30  1  0.84110600  0.86481900  0.41834700  1
  Cu  Cu31  1  0.86065100  0.86994500  0.08564000  1
  Cu  Cu32  1  0.83243800  0.90605600  0.74566500  1
  Cu  Cu33  1  0.15327800  0.89737600  0.58778700  1
  Cu  Cu34  1  0.19022900  0.89538800  0.92666900  1
  Cu  Cu35  1  0.15282900  0.86199500  0.25165200  1
