# generated using pymatgen
data_CuNi3C20
_symmetry_space_group_name_H-M   'P 1'
_cell_length_a   5.89075500
_cell_length_b   4.86004600
_cell_length_c   9.93831967
_cell_angle_alpha   89.87494254
_cell_angle_beta   90.00000000
_cell_angle_gamma   90.00000000
_symmetry_Int_Tables_number   1
_chemical_formula_structural   CuNi3C20
_chemical_formula_sum   'Cu1 Ni3 C20'
_cell_volume   284.52685793
_cell_formula_units_Z   1
loop_
 _symmetry_equiv_pos_site_id
 _symmetry_equiv_pos_as_xyz
  1  'x, y, z'
loop_
 _atom_site_type_symbol
 _atom_site_label
 _atom_site_symmetry_multiplicity
 _atom_site_fract_x
 _atom_site_fract_y
 _atom_site_fract_z
 _atom_site_occupancy
  Ni  Ni0  1  0.00000000  0.46835000  0.77344100  1
  Ni  Ni1  1  0.50000000  0.53721400  0.22375800  1
  Ni  Ni2  1  0.50000000  0.96760800  0.72522300  1
  Cu  Cu3  1  0.00000000  0.06683600  0.28416300  1
  C  C4  1  0.50000000  0.07505200  0.40377900  1
  C  C5  1  0.50000000  0.41571700  0.90343400  1
  C  C6  1  0.00000000  0.58674500  0.10277200  1
  C  C7  1  0.00000000  0.91863100  0.59240700  1
  C  C8  1  0.50000000  0.15440600  0.55195000  1
  C  C9  1  0.29794700  0.22370000  0.32662200  1
  C  C10  1  0.70205300  0.22370000  0.32662200  1
  C  C11  1  0.00000000  0.22847300  0.61567000  1
  C  C12  1  0.00000000  0.27036300  0.12123500  1
  C  C13  1  0.29692200  0.26985100  0.82772100  1
  C  C14  1  0.70307800  0.26985100  0.82772100  1
  C  C15  1  0.50000000  0.34593400  0.05249300  1
  C  C16  1  0.00000000  0.64075100  0.95054300  1
  C  C17  1  0.79463600  0.72960400  0.17390100  1
  C  C18  1  0.20536400  0.72960400  0.17390100  1
  C  C19  1  0.50000000  0.72580200  0.87985600  1
  C  C20  1  0.50000000  0.76558800  0.38450700  1
  C  C21  1  0.79724000  0.77076500  0.66781500  1
  C  C22  1  0.20276000  0.77076500  0.66781500  1
  C  C23  1  0.00000000  0.84468800  0.44265100  1
