# generated using pymatgen
data_Cu3(Ni2C9)2
_symmetry_space_group_name_H-M   'P 1'
_cell_length_a   4.96323500
_cell_length_b   7.32629401
_cell_length_c   8.00243824
_cell_angle_alpha   90.81515438
_cell_angle_beta   91.71557741
_cell_angle_gamma   102.25856305
_symmetry_Int_Tables_number   1
_chemical_formula_structural   Cu3(Ni2C9)2
_chemical_formula_sum   'Cu3 Ni4 C18'
_cell_volume   284.16038725
_cell_formula_units_Z   1
loop_
 _symmetry_equiv_pos_site_id
 _symmetry_equiv_pos_as_xyz
  1  'x, y, z'
loop_
 _atom_site_type_symbol
 _atom_site_label
 _atom_site_symmetry_multiplicity
 _atom_site_fract_x
 _atom_site_fract_y
 _atom_site_fract_z
 _atom_site_occupancy
  C  C0  1  0.00056200  0.49727200  0.00398000  1
  C  C1  1  0.49919700  0.00179900  0.49919000  1
  Ni  Ni2  1  0.09790100  0.24699600  0.66895400  1
  Ni  Ni3  1  0.39862000  0.23652200  0.15110000  1
  Ni  Ni4  1  0.59838400  0.75349600  0.84490700  1
  Ni  Ni5  1  0.90115600  0.75527500  0.33091000  1
  Cu  Cu6  1  0.42039000  0.43156900  0.56811600  1
  Cu  Cu7  1  0.57845800  0.56954300  0.43185900  1
  Cu  Cu8  1  0.93665400  0.96951200  0.98227600  1
  C  C9  1  0.16584900  0.84790200  0.42933600  1
  C  C10  1  0.02064000  0.30678300  0.84235800  1
  C  C11  1  0.21912500  0.39317600  0.15349400  1
  C  C12  1  0.22491200  0.43320100  0.57439200  1
  C  C13  1  0.32212600  0.65810100  0.92131200  1
  C  C14  1  0.54907400  0.81044500  0.66434100  1
  C  C15  1  0.25835100  0.07350500  0.04489200  1
  C  C16  1  0.30916700  0.12323600  0.67323500  1
  C  C17  1  0.68992900  0.87906500  0.32606100  1
  C  C18  1  0.73169300  0.92757400  0.95450300  1
  C  C19  1  0.45183600  0.19324800  0.33642100  1
  C  C20  1  0.68228900  0.34691400  0.08268600  1
  C  C21  1  0.77410000  0.56884000  0.42510000  1
  C  C22  1  0.78645700  0.60837200  0.84256300  1
  C  C23  1  0.97833200  0.69580400  0.15747900  1
  C  C24  1  0.83368000  0.15375200  0.57063600  1
