# generated using pymatgen
data_Cu6Ni2C27
_symmetry_space_group_name_H-M   'P 1'
_cell_length_a   8.80751224
_cell_length_b   8.80751224
_cell_length_c   8.80751195
_cell_angle_alpha   59.31900788
_cell_angle_beta   59.31900788
_cell_angle_gamma   59.31900911
_symmetry_Int_Tables_number   1
_chemical_formula_structural   Cu6Ni2C27
_chemical_formula_sum   'Cu6 Ni2 C27'
_cell_volume   475.61823850
_cell_formula_units_Z   1
loop_
 _symmetry_equiv_pos_site_id
 _symmetry_equiv_pos_as_xyz
  1  'x, y, z'
loop_
 _atom_site_type_symbol
 _atom_site_label
 _atom_site_symmetry_multiplicity
 _atom_site_fract_x
 _atom_site_fract_y
 _atom_site_fract_z
 _atom_site_occupancy
  C  C0  1  0.13728200  0.13728200  0.13728200  1
  C  C1  1  0.34989000  0.34989000  0.34989000  1
  C  C2  1  0.65584700  0.65584700  0.65584700  1
  Ni  Ni3  1  0.96837900  0.96837900  0.96837900  1
  Ni  Ni4  1  0.49761200  0.49761200  0.49761200  1
  Cu  Cu5  1  0.52677400  0.25941800  0.95543800  1
  Cu  Cu6  1  0.95543800  0.52677400  0.25941800  1
  Cu  Cu7  1  0.25941800  0.95543800  0.52677400  1
  Cu  Cu8  1  0.75171200  0.05275500  0.46831700  1
  Cu  Cu9  1  0.05275500  0.46831700  0.75171200  1
  Cu  Cu10  1  0.46831700  0.75171200  0.05275500  1
  C  C11  1  0.32381400  0.11211500  0.48220100  1
  C  C12  1  0.48220100  0.32381400  0.11211500  1
  C  C13  1  0.91585700  0.06346700  0.27487200  1
  C  C14  1  0.11211500  0.48220100  0.32381400  1
  C  C15  1  0.78053900  0.04774100  0.62165600  1
  C  C16  1  0.58047800  0.23882300  0.41977100  1
  C  C17  1  0.06346700  0.27487200  0.91585700  1
  C  C18  1  0.23882300  0.41977100  0.58047800  1
  C  C19  1  0.36750000  0.20725300  0.99280600  1
  C  C20  1  0.41977100  0.58047800  0.23882300  1
  C  C21  1  0.71269300  0.09363400  0.94510800  1
  C  C22  1  0.99280600  0.36750000  0.20725300  1
  C  C23  1  0.04774100  0.62165600  0.78053900  1
  C  C24  1  0.27487200  0.91585700  0.06346700  1
  C  C25  1  0.55012600  0.42844800  0.76737600  1
  C  C26  1  0.62165600  0.78053900  0.04774100  1
  C  C27  1  0.76737600  0.55012600  0.42844800  1
  C  C28  1  0.94510800  0.71269300  0.09363400  1
  C  C29  1  0.42844800  0.76737600  0.55012600  1
  C  C30  1  0.20725300  0.99280600  0.36750000  1
  C  C31  1  0.88094900  0.50935200  0.70260700  1
  C  C32  1  0.09363400  0.94510800  0.71269300  1
  C  C33  1  0.50935200  0.70260700  0.88094900  1
  C  C34  1  0.70260700  0.88094900  0.50935200  1
