# generated using pymatgen
data_Cu2(NiC2)3
_symmetry_space_group_name_H-M   'P 1'
_cell_length_a   7.04036300
_cell_length_b   8.98861400
_cell_length_c   11.43691500
_cell_angle_alpha   90.00000000
_cell_angle_beta   90.00000000
_cell_angle_gamma   90.00000000
_symmetry_Int_Tables_number   1
_chemical_formula_structural   Cu2(NiC2)3
_chemical_formula_sum   'Cu8 Ni12 C24'
_cell_volume   723.76349770
_cell_formula_units_Z   4
loop_
 _symmetry_equiv_pos_site_id
 _symmetry_equiv_pos_as_xyz
  1  'x, y, z'
loop_
 _atom_site_type_symbol
 _atom_site_label
 _atom_site_symmetry_multiplicity
 _atom_site_fract_x
 _atom_site_fract_y
 _atom_site_fract_z
 _atom_site_occupancy
  C  C0  1  0.00000000  0.25000000  0.65031200  1
  C  C1  1  0.00000000  0.75000000  0.84968800  1
  C  C2  1  0.00000000  0.75000000  0.34968800  1
  C  C3  1  0.00000000  0.25000000  0.15031200  1
  C  C4  1  0.53126700  0.00000000  0.75000000  1
  C  C5  1  0.46873300  0.50000000  0.75000000  1
  C  C6  1  0.46873300  0.00000000  0.25000000  1
  C  C7  1  0.53126700  0.50000000  0.25000000  1
  C  C8  1  0.30418500  0.02466600  0.94814800  1
  C  C9  1  0.69581500  0.47533400  0.94814800  1
  C  C10  1  0.69581500  0.52466600  0.55185200  1
  C  C11  1  0.30418500  0.97533400  0.55185200  1
  C  C12  1  0.69581500  0.97533400  0.05185200  1
  C  C13  1  0.30418500  0.52466600  0.05185200  1
  C  C14  1  0.30418500  0.47533400  0.44814800  1
  C  C15  1  0.69581500  0.02466600  0.44814800  1
  C  C16  1  0.29841500  0.18240800  0.88475800  1
  C  C17  1  0.70158500  0.31759200  0.88475800  1
  C  C18  1  0.70158500  0.68240800  0.61524200  1
  C  C19  1  0.29841500  0.81759200  0.61524200  1
  C  C20  1  0.70158500  0.81759200  0.11524200  1
  C  C21  1  0.29841500  0.68240800  0.11524200  1
  C  C22  1  0.29841500  0.31759200  0.38475800  1
  C  C23  1  0.70158500  0.18240800  0.38475800  1
  Ni  Ni24  1  0.50000000  0.25000000  0.64978500  1
  Ni  Ni25  1  0.50000000  0.75000000  0.85021500  1
  Ni  Ni26  1  0.50000000  0.75000000  0.35021500  1
  Ni  Ni27  1  0.50000000  0.25000000  0.14978500  1
  Ni  Ni28  1  0.79182300  0.08680700  0.88865500  1
  Ni  Ni29  1  0.20817700  0.41319300  0.88865500  1
  Ni  Ni30  1  0.20817700  0.58680700  0.61134500  1
  Ni  Ni31  1  0.79182300  0.91319300  0.61134500  1
  Ni  Ni32  1  0.20817700  0.91319300  0.11134500  1
  Ni  Ni33  1  0.79182300  0.58680700  0.11134500  1
  Ni  Ni34  1  0.79182300  0.41319300  0.38865500  1
  Ni  Ni35  1  0.20817700  0.08680700  0.38865500  1
  Cu  Cu36  1  0.31830400  0.07426300  0.87141000  1
  Cu  Cu37  1  0.68169600  0.42573700  0.87141000  1
  Cu  Cu38  1  0.68169600  0.57426300  0.62859000  1
  Cu  Cu39  1  0.31830400  0.92573700  0.62859000  1
  Cu  Cu40  1  0.68169600  0.92573700  0.12859000  1
  Cu  Cu41  1  0.31830400  0.57426300  0.12859000  1
  Cu  Cu42  1  0.31830400  0.42573700  0.37141000  1
  Cu  Cu43  1  0.68169600  0.07426300  0.37141000  1
