# generated using pymatgen
data_Cu2NiC4
_symmetry_space_group_name_H-M   'P 1'
_cell_length_a   5.68355713
_cell_length_b   5.68374173
_cell_length_c   6.00618123
_cell_angle_alpha   118.24074402
_cell_angle_beta   118.23980492
_cell_angle_gamma   90.00012287
_symmetry_Int_Tables_number   1
_chemical_formula_structural   Cu2NiC4
_chemical_formula_sum   'Cu4 Ni2 C8'
_cell_volume   144.18122268
_cell_formula_units_Z   2
loop_
 _symmetry_equiv_pos_site_id
 _symmetry_equiv_pos_as_xyz
  1  'x, y, z'
loop_
 _atom_site_type_symbol
 _atom_site_label
 _atom_site_symmetry_multiplicity
 _atom_site_fract_x
 _atom_site_fract_y
 _atom_site_fract_z
 _atom_site_occupancy
  Ni  Ni0  1  0.37500300  0.62500100  0.75000400  1
  Ni  Ni1  1  0.62499700  0.37499900  0.24999600  1
  Cu  Cu2  1  0.00000000  0.00000000  0.49999900  1
  Cu  Cu3  1  0.00000000  0.50000000  0.00000000  1
  Cu  Cu4  1  0.50000000  0.00000000  0.49999900  1
  Cu  Cu5  1  0.00000000  0.00000000  0.00000000  1
  C  C6  1  0.76072600  0.78607900  0.52145900  1
  C  C7  1  0.76463600  0.23927800  0.97854800  1
  C  C8  1  0.21392000  0.23927600  0.97854300  1
  C  C9  1  0.23927400  0.21392100  0.47854200  1
  C  C10  1  0.23927700  0.76463300  0.47854700  1
  C  C11  1  0.23536400  0.76072200  0.02145200  1
  C  C12  1  0.76072300  0.23536700  0.52145400  1
  C  C13  1  0.78608000  0.76072400  0.02145700  1
