# generated using pymatgen
data_Cu(NiC2)2
_symmetry_space_group_name_H-M   'P 1'
_cell_length_a   6.51838457
_cell_length_b   6.51838457
_cell_length_c   6.51838457
_cell_angle_alpha   128.79592737
_cell_angle_beta   128.79592737
_cell_angle_gamma   75.33915754
_symmetry_Int_Tables_number   1
_chemical_formula_structural   Cu(NiC2)2
_chemical_formula_sum   'Cu1 Ni2 C4'
_cell_volume   163.74255369
_cell_formula_units_Z   1
loop_
 _symmetry_equiv_pos_site_id
 _symmetry_equiv_pos_as_xyz
  1  'x, y, z'
loop_
 _atom_site_type_symbol
 _atom_site_label
 _atom_site_symmetry_multiplicity
 _atom_site_fract_x
 _atom_site_fract_y
 _atom_site_fract_z
 _atom_site_occupancy
  Ni  Ni0  1  0.25000000  0.75000000  0.50000000  1
  Ni  Ni1  1  0.50000000  0.50000000  0.00000000  1
  Cu  Cu2  1  0.00000000  0.00000000  0.00000000  1
  C  C3  1  0.86845400  0.41681200  0.01446800  1
  C  C4  1  0.40234400  0.85398600  0.98553200  1
  C  C5  1  0.14601400  0.13154600  0.54835800  1
  C  C6  1  0.58318800  0.59765600  0.45164200  1
