# generated using pymatgen
data_Cu6Ni7C19
_symmetry_space_group_name_H-M   'P 1'
_cell_length_a   8.09886800
_cell_length_b   8.94123913
_cell_length_c   9.68455286
_cell_angle_alpha   65.10211770
_cell_angle_beta   65.28320940
_cell_angle_gamma   63.07048465
_symmetry_Int_Tables_number   1
_chemical_formula_structural   Cu6Ni7C19
_chemical_formula_sum   'Cu6 Ni7 C19'
_cell_volume   544.24353805
_cell_formula_units_Z   1
loop_
 _symmetry_equiv_pos_site_id
 _symmetry_equiv_pos_as_xyz
  1  'x, y, z'
loop_
 _atom_site_type_symbol
 _atom_site_label
 _atom_site_symmetry_multiplicity
 _atom_site_fract_x
 _atom_site_fract_y
 _atom_site_fract_z
 _atom_site_occupancy
  C  C0  1  0.50000000  0.50000000  0.50000000  1
  C  C1  1  0.55359800  0.38852300  0.78709100  1
  C  C2  1  0.27078800  0.38852300  0.78709100  1
  C  C3  1  0.28131600  0.29480100  0.66779400  1
  C  C4  1  0.75608900  0.29480100  0.66779400  1
  C  C5  1  0.56262000  0.18238300  0.49045800  1
  C  C6  1  0.76453900  0.18238300  0.49045800  1
  C  C7  1  0.14090300  0.49814200  0.66084200  1
  C  C8  1  0.70011300  0.49814200  0.66084200  1
  C  C9  1  0.69876800  0.27689600  0.32556800  1
  C  C10  1  0.30123200  0.72310400  0.67443200  1
  C  C11  1  0.29988700  0.50185800  0.33915800  1
  C  C12  1  0.85909700  0.50185800  0.33915800  1
  C  C13  1  0.23546100  0.81761700  0.50954200  1
  C  C14  1  0.43738000  0.81761700  0.50954200  1
  C  C15  1  0.71868400  0.70519900  0.33220600  1
  C  C16  1  0.24391100  0.70519900  0.33220600  1
  C  C17  1  0.44640200  0.61147700  0.21290900  1
  C  C18  1  0.72921200  0.61147700  0.21290900  1
  Ni  Ni19  1  0.16349100  0.21903100  0.45398700  1
  Ni  Ni20  1  0.60260100  0.92404300  0.87075500  1
  Ni  Ni21  1  0.39739900  0.07595700  0.12924500  1
  Ni  Ni22  1  0.83650900  0.78096900  0.54601300  1
  Ni  Ni23  1  0.00000000  0.00000000  0.00000000  1
  Ni  Ni24  1  0.18724700  0.63440000  0.99110600  1
  Ni  Ni25  1  0.81275300  0.36560000  0.00889400  1
  Cu  Cu26  1  0.27496500  0.41029000  0.67270300  1
  Cu  Cu27  1  0.64204200  0.41029000  0.67270300  1
  Cu  Cu28  1  0.64677800  0.25994000  0.44650400  1
  Cu  Cu29  1  0.35322200  0.74006000  0.55349600  1
  Cu  Cu30  1  0.72503500  0.58971000  0.32729700  1
  Cu  Cu31  1  0.35795800  0.58971000  0.32729700  1
