# generated using pymatgen
data_CuNi7C60
_symmetry_space_group_name_H-M   'P 1'
_cell_length_a   8.45042600
_cell_length_b   8.47939307
_cell_length_c   11.78100089
_cell_angle_alpha   90.05504852
_cell_angle_beta   90.02836824
_cell_angle_gamma   90.04000856
_symmetry_Int_Tables_number   1
_chemical_formula_structural   CuNi7C60
_chemical_formula_sum   'Cu1 Ni7 C60'
_cell_volume   844.16083603
_cell_formula_units_Z   1
loop_
 _symmetry_equiv_pos_site_id
 _symmetry_equiv_pos_as_xyz
  1  'x, y, z'
loop_
 _atom_site_type_symbol
 _atom_site_label
 _atom_site_symmetry_multiplicity
 _atom_site_fract_x
 _atom_site_fract_y
 _atom_site_fract_z
 _atom_site_occupancy
  Ni  Ni0  1  0.96621800  0.25003800  0.38086000  1
  Ni  Ni1  1  0.53437500  0.25059500  0.61858100  1
  Ni  Ni2  1  0.03491800  0.24981800  0.88178100  1
  Ni  Ni3  1  0.46621100  0.24974700  0.11847100  1
  Ni  Ni4  1  0.53458000  0.75017700  0.88086800  1
  Ni  Ni5  1  0.96629200  0.75038800  0.11795300  1
  Ni  Ni6  1  0.03400700  0.74973300  0.61831200  1
  Cu  Cu7  1  0.46927700  0.74971500  0.37794000  1
  C  C8  1  0.24790800  0.03744200  0.50067900  1
  C  C9  1  0.39134700  0.10618500  0.85472700  1
  C  C10  1  0.10869500  0.10651700  0.14502600  1
  C  C11  1  0.60858400  0.38937600  0.35451300  1
  C  C12  1  0.89156600  0.39327800  0.64484300  1
  C  C13  1  0.75015800  0.46381300  0.99983200  1
  C  C14  1  0.25041400  0.53666800  0.99985400  1
  C  C15  1  0.39212400  0.60585800  0.64562400  1
  C  C16  1  0.10520900  0.60509700  0.35472200  1
  C  C17  1  0.61059100  0.89648800  0.14241200  1
  C  C18  1  0.89164300  0.89353200  0.85457900  1
  C  C19  1  0.75267800  0.96547800  0.50135400  1
  C  C20  1  0.64361100  0.06204300  0.57808400  1
  C  C21  1  0.85771700  0.05930000  0.42022200  1
  C  C22  1  0.90085400  0.07525000  0.83984200  1
  C  C23  1  0.60139400  0.07625400  0.15762100  1
  C  C24  1  0.15937300  0.14494400  0.41680600  1
  C  C25  1  0.34120400  0.14572500  0.58140700  1
  C  C26  1  0.43858600  0.15884200  0.97343600  1
  C  C27  1  0.06148200  0.15865500  0.02604300  1
  C  C28  1  0.22094800  0.15109500  0.82368700  1
  C  C29  1  0.27935900  0.15073000  0.17597200  1
  C  C30  1  0.51358700  0.17929700  0.77237600  1
  C  C31  1  0.98599300  0.17959500  0.22680000  1
  C  C32  1  0.01405600  0.32060700  0.72746500  1
  C  C33  1  0.48622400  0.31785800  0.27276900  1
  C  C34  1  0.78054500  0.35163900  0.32405400  1
  C  C35  1  0.72103600  0.34930500  0.67633600  1
  C  C36  1  0.56311500  0.33999300  0.47417800  1
  C  C37  1  0.93923100  0.33989800  0.52629700  1
  C  C38  1  0.84065600  0.35334000  0.91814600  1
  C  C39  1  0.65907600  0.35488700  0.08154700  1
  C  C40  1  0.10126800  0.42428300  0.34017200  1
  C  C41  1  0.39946200  0.42450000  0.65758100  1
  C  C42  1  0.14065200  0.44064200  0.92260800  1
  C  C43  1  0.35893800  0.44050900  0.07741400  1
  C  C44  1  0.64135000  0.55971900  0.92206500  1
  C  C45  1  0.85967700  0.55997800  0.07708000  1
  C  C46  1  0.59095900  0.57251700  0.34400900  1
  C  C47  1  0.90086800  0.57481500  0.65977600  1
  C  C48  1  0.34050700  0.64626500  0.91749200  1
  C  C49  1  0.16029900  0.64653000  0.08228200  1
  C  C50  1  0.05874400  0.65742600  0.47380400  1
  C  C51  1  0.43899900  0.66287200  0.52621800  1
  C  C52  1  0.22166400  0.65176900  0.67496700  1
  C  C53  1  0.27906900  0.65304700  0.32965000  1
  C  C54  1  0.51447700  0.67972500  0.72694500  1
  C  C55  1  0.98682100  0.68215800  0.27261700  1
  C  C56  1  0.01424300  0.82015800  0.77264100  1
  C  C57  1  0.49302200  0.82221100  0.23056900  1
  C  C58  1  0.72105100  0.84920600  0.82375100  1
  C  C59  1  0.77923500  0.84831400  0.17518600  1
  C  C60  1  0.55891200  0.83915700  0.02613400  1
  C  C61  1  0.93888800  0.84171200  0.97351800  1
  C  C62  1  0.65169900  0.85564600  0.42324900  1
  C  C63  1  0.84115800  0.85336300  0.58156100  1
  C  C64  1  0.10038600  0.92505200  0.15911300  1
  C  C65  1  0.40020600  0.92463300  0.84009200  1
  C  C66  1  0.13856800  0.94184400  0.57811900  1
  C  C67  1  0.35404100  0.93274900  0.42536700  1
