# generated using pymatgen
data_CuNiC11
_symmetry_space_group_name_H-M   'P 1'
_cell_length_a   7.14307100
_cell_length_b   6.03502500
_cell_length_c   10.32556260
_cell_angle_alpha   84.47996078
_cell_angle_beta   90.00000000
_cell_angle_gamma   90.00000000
_symmetry_Int_Tables_number   1
_chemical_formula_structural   CuNiC11
_chemical_formula_sum   'Cu2 Ni2 C22'
_cell_volume   443.05647691
_cell_formula_units_Z   2
loop_
 _symmetry_equiv_pos_site_id
 _symmetry_equiv_pos_as_xyz
  1  'x, y, z'
loop_
 _atom_site_type_symbol
 _atom_site_label
 _atom_site_symmetry_multiplicity
 _atom_site_fract_x
 _atom_site_fract_y
 _atom_site_fract_z
 _atom_site_occupancy
  C  C0  1  0.75000000  0.24012500  0.92173200  1
  C  C1  1  0.00085200  0.77936800  0.73018100  1
  C  C2  1  0.49914800  0.77936800  0.73018100  1
  C  C3  1  0.50085200  0.22063200  0.26981900  1
  C  C4  1  0.99914800  0.22063200  0.26981900  1
  C  C5  1  0.25000000  0.75987500  0.07826800  1
  Ni  Ni6  1  0.25000000  0.28019300  0.64679900  1
  Ni  Ni7  1  0.75000000  0.71980700  0.35320100  1
  Cu  Cu8  1  0.75000000  0.32768700  0.59259500  1
  Cu  Cu9  1  0.25000000  0.67231300  0.40740500  1
  C  C10  1  0.25000000  0.27630600  0.94423000  1
  C  C11  1  0.75000000  0.72369400  0.05577000  1
  C  C12  1  0.75000000  0.77256600  0.93093800  1
  C  C13  1  0.25000000  0.11110100  0.86763500  1
  C  C14  1  0.25000000  0.48022800  0.89238000  1
  C  C15  1  0.92483800  0.25616500  0.67988000  1
  C  C16  1  0.57516200  0.25616500  0.67988000  1
  C  C17  1  0.75000000  0.59157700  0.56993300  1
  C  C18  1  0.25000000  0.77404700  0.53660200  1
  C  C19  1  0.75000000  0.22595300  0.46339800  1
  C  C20  1  0.25000000  0.40842300  0.43006700  1
  C  C21  1  0.42483800  0.74383500  0.32012000  1
  C  C22  1  0.07516200  0.74383500  0.32012000  1
  C  C23  1  0.75000000  0.51977200  0.10762000  1
  C  C24  1  0.75000000  0.88889900  0.13236500  1
  C  C25  1  0.25000000  0.22743400  0.06906200  1
