# generated using pymatgen
data_Cu3NiC4
_symmetry_space_group_name_H-M   'P 1'
_cell_length_a   5.35728600
_cell_length_b   6.33261500
_cell_length_c   25.18530700
_cell_angle_alpha   90.00000000
_cell_angle_beta   90.00000000
_cell_angle_gamma   90.00000000
_symmetry_Int_Tables_number   1
_chemical_formula_structural   Cu3NiC4
_chemical_formula_sum   'Cu24 Ni8 C32'
_cell_volume   854.42739873
_cell_formula_units_Z   8
loop_
 _symmetry_equiv_pos_site_id
 _symmetry_equiv_pos_as_xyz
  1  'x, y, z'
loop_
 _atom_site_type_symbol
 _atom_site_label
 _atom_site_symmetry_multiplicity
 _atom_site_fract_x
 _atom_site_fract_y
 _atom_site_fract_z
 _atom_site_occupancy
  C  C0  1  0.09547500  0.02164300  0.84659500  1
  C  C1  1  0.40452500  0.97835700  0.34659500  1
  C  C2  1  0.59547500  0.47835700  0.15340500  1
  C  C3  1  0.90452500  0.52164300  0.65340500  1
  C  C4  1  0.04353800  0.63941900  0.24861300  1
  C  C5  1  0.06942800  0.04813500  0.08311500  1
  C  C6  1  0.09473800  0.84483900  0.03697400  1
  C  C7  1  0.11181100  0.10204100  0.01615000  1
  C  C8  1  0.22918700  0.47427800  0.28230200  1
  C  C9  1  0.27081300  0.52572200  0.78230200  1
  C  C10  1  0.38818900  0.89795900  0.51615000  1
  C  C11  1  0.40526200  0.15516100  0.53697400  1
  C  C12  1  0.43057200  0.95186500  0.58311500  1
  C  C13  1  0.45646200  0.36058100  0.74861300  1
  C  C14  1  0.54353800  0.86058100  0.75138700  1
  C  C15  1  0.56942800  0.45186500  0.91688500  1
  C  C16  1  0.59473800  0.65516100  0.96302600  1
  C  C17  1  0.61181100  0.39795900  0.98385000  1
  C  C18  1  0.72918700  0.02572200  0.71769800  1
  C  C19  1  0.77081300  0.97427800  0.21769800  1
  C  C20  1  0.88818900  0.60204100  0.48385000  1
  C  C21  1  0.90526200  0.34483900  0.46302600  1
  C  C22  1  0.93057200  0.54813500  0.41688500  1
  C  C23  1  0.95646200  0.13941900  0.25138700  1
  C  C24  1  0.15756800  0.98560700  0.18334700  1
  C  C25  1  0.19899600  0.49524000  0.96643400  1
  C  C26  1  0.30100400  0.50476000  0.46643400  1
  C  C27  1  0.34243200  0.01439300  0.68334700  1
  C  C28  1  0.65756800  0.51439300  0.81665300  1
  C  C29  1  0.69899600  0.00476000  0.03356600  1
  C  C30  1  0.80100400  0.99524000  0.53356600  1
  C  C31  1  0.84243200  0.48560700  0.31665300  1
  Ni  Ni32  1  0.03180500  0.99856700  0.04351100  1
  Ni  Ni33  1  0.05160600  0.49592100  0.26766300  1
  Ni  Ni34  1  0.44839400  0.50407900  0.76766300  1
  Ni  Ni35  1  0.46819500  0.00143300  0.54351100  1
  Ni  Ni36  1  0.53180500  0.50143300  0.95648900  1
  Ni  Ni37  1  0.55160600  0.00407900  0.73233700  1
  Ni  Ni38  1  0.94839400  0.99592100  0.23233700  1
  Ni  Ni39  1  0.96819500  0.49856700  0.45648900  1
  Cu  Cu40  1  0.10731600  0.15698500  0.14424800  1
  Cu  Cu41  1  0.10137700  0.98428500  0.71010700  1
  Cu  Cu42  1  0.11896600  0.77576400  0.16021100  1
  Cu  Cu43  1  0.11086500  0.64043100  0.92647900  1
  Cu  Cu44  1  0.14294500  0.27243000  0.95711300  1
  Cu  Cu45  1  0.16859800  0.56165400  0.02146300  1
  Cu  Cu46  1  0.33140200  0.43834600  0.52146300  1
  Cu  Cu47  1  0.35705500  0.72757000  0.45711300  1
  Cu  Cu48  1  0.38913500  0.35956900  0.42647900  1
  Cu  Cu49  1  0.38103400  0.22423600  0.66021100  1
  Cu  Cu50  1  0.39862300  0.01571500  0.21010700  1
  Cu  Cu51  1  0.39268400  0.84301500  0.64424800  1
  Cu  Cu52  1  0.60731600  0.34301500  0.85575200  1
  Cu  Cu53  1  0.60137700  0.51571500  0.28989300  1
  Cu  Cu54  1  0.61896600  0.72423600  0.83978900  1
  Cu  Cu55  1  0.61086500  0.85956900  0.07352100  1
  Cu  Cu56  1  0.64294500  0.22757000  0.04288700  1
  Cu  Cu57  1  0.66859800  0.93834600  0.97853700  1
  Cu  Cu58  1  0.83140200  0.06165400  0.47853700  1
  Cu  Cu59  1  0.85705500  0.77243000  0.54288700  1
  Cu  Cu60  1  0.88913500  0.14043100  0.57352100  1
  Cu  Cu61  1  0.88103400  0.27576400  0.33978900  1
  Cu  Cu62  1  0.89862300  0.48428500  0.78989300  1
  Cu  Cu63  1  0.89268400  0.65698500  0.35575200  1
