# generated using pymatgen
data_Cu5Ni3C20
_symmetry_space_group_name_H-M   'P 1'
_cell_length_a   3.24151500
_cell_length_b   9.39438309
_cell_length_c   9.50006414
_cell_angle_alpha   89.99286170
_cell_angle_beta   94.16140341
_cell_angle_gamma   90.17948600
_symmetry_Int_Tables_number   1
_chemical_formula_structural   Cu5Ni3C20
_chemical_formula_sum   'Cu5 Ni3 C20'
_cell_volume   288.53215188
_cell_formula_units_Z   1
loop_
 _symmetry_equiv_pos_site_id
 _symmetry_equiv_pos_as_xyz
  1  'x, y, z'
loop_
 _atom_site_type_symbol
 _atom_site_label
 _atom_site_symmetry_multiplicity
 _atom_site_fract_x
 _atom_site_fract_y
 _atom_site_fract_z
 _atom_site_occupancy
  Ni  Ni0  1  0.74355600  0.18267400  0.39737300  1
  Ni  Ni1  1  0.25593200  0.81688400  0.60227200  1
  Ni  Ni2  1  0.74170700  0.31674200  0.89793300  1
  Cu  Cu3  1  0.25531800  0.68554200  0.10235400  1
  Cu  Cu4  1  0.24942800  0.06518600  0.11868600  1
  Cu  Cu5  1  0.75491100  0.56251800  0.38367300  1
  Cu  Cu6  1  0.24667500  0.43527800  0.61885900  1
  Cu  Cu7  1  0.75411200  0.93889300  0.87725500  1
  C  C8  1  0.27447500  0.36705900  0.16380200  1
  C  C9  1  0.72841000  0.86969500  0.34003100  1
  C  C10  1  0.27176400  0.13267400  0.66209900  1
  C  C11  1  0.72663600  0.63147300  0.83261600  1
  C  C12  1  0.21560000  0.88769100  0.01236200  1
  C  C13  1  0.26476500  0.36445400  0.02100500  1
  C  C14  1  0.24443800  0.24075800  0.24164800  1
  C  C15  1  0.30927100  0.49673100  0.23789900  1
  C  C16  1  0.69986000  0.99816600  0.26556300  1
  C  C17  1  0.75872100  0.74068800  0.26511500  1
  C  C18  1  0.73402600  0.86658700  0.48268600  1
  C  C19  1  0.77625400  0.38597900  0.48784100  1
  C  C20  1  0.22642700  0.61239200  0.51427500  1
  C  C21  1  0.26581200  0.13633800  0.51957600  1
  C  C22  1  0.24321300  0.25921200  0.74038000  1
  C  C23  1  0.30030100  0.00196000  0.73434800  1
  C  C24  1  0.69632300  0.50057500  0.76189100  1
  C  C25  1  0.75522400  0.75937400  0.75761400  1
  C  C26  1  0.73367300  0.63147200  0.97532100  1
  C  C27  1  0.77317200  0.11300500  0.98552400  1
