# generated using pymatgen
data_Cu3NiC4
_symmetry_space_group_name_H-M   'P 1'
_cell_length_a   2.90949338
_cell_length_b   16.88782488
_cell_length_c   5.81896131
_cell_angle_alpha   99.92056635
_cell_angle_beta   90.00019495
_cell_angle_gamma   90.00002180
_symmetry_Int_Tables_number   1
_chemical_formula_structural   Cu3NiC4
_chemical_formula_sum   'Cu12 Ni4 C16'
_cell_volume   281.63962311
_cell_formula_units_Z   4
loop_
 _symmetry_equiv_pos_site_id
 _symmetry_equiv_pos_as_xyz
  1  'x, y, z'
loop_
 _atom_site_type_symbol
 _atom_site_label
 _atom_site_symmetry_multiplicity
 _atom_site_fract_x
 _atom_site_fract_y
 _atom_site_fract_z
 _atom_site_occupancy
  C  C0  1  0.00007000  0.25000000  0.62496400  1
  C  C1  1  0.00007000  0.75000000  0.87496400  1
  C  C2  1  0.00007000  0.25000000  0.12496400  1
  C  C3  1  0.00007000  0.75000000  0.37496400  1
  C  C4  1  0.50005500  0.12570300  0.31282300  1
  C  C5  1  0.50005500  0.62570300  0.56282300  1
  C  C6  1  0.50005500  0.12570300  0.81282300  1
  C  C7  1  0.50005500  0.62570300  0.06282300  1
  C  C8  1  0.50005400  0.37429600  0.43712000  1
  C  C9  1  0.50005400  0.87429600  0.68712000  1
  C  C10  1  0.50005400  0.37429600  0.93712000  1
  C  C11  1  0.50005400  0.87429600  0.18712000  1
  C  C12  1  0.99979000  0.00000200  0.00011100  1
  C  C13  1  0.99979000  0.50000200  0.25011100  1
  C  C14  1  0.99979000  0.00000200  0.50011100  1
  C  C15  1  0.99979000  0.50000200  0.75011100  1
  Ni  Ni16  1  0.49988700  0.50000000  0.50005800  1
  Ni  Ni17  1  0.49988700  0.00000000  0.75005800  1
  Ni  Ni18  1  0.49988700  0.50000000  0.00005800  1
  Ni  Ni19  1  0.49988700  0.00000000  0.25005800  1
  Cu  Cu20  1  0.50002600  0.24999900  0.37498600  1
  Cu  Cu21  1  0.50002600  0.74999900  0.62498600  1
  Cu  Cu22  1  0.50002600  0.24999900  0.87498600  1
  Cu  Cu23  1  0.50002600  0.74999900  0.12498600  1
  Cu  Cu24  1  0.00006100  0.12988100  0.56490900  1
  Cu  Cu25  1  0.00006100  0.62988100  0.81490900  1
  Cu  Cu26  1  0.00006100  0.12988100  0.06490900  1
  Cu  Cu27  1  0.00006100  0.62988100  0.31490900  1
  Cu  Cu28  1  0.00005700  0.37011800  0.68502800  1
  Cu  Cu29  1  0.00005700  0.87011800  0.93502800  1
  Cu  Cu30  1  0.00005700  0.37011800  0.18502800  1
  Cu  Cu31  1  0.00005700  0.87011800  0.43502800  1
