# generated using pymatgen
data_CuNiC5
_symmetry_space_group_name_H-M   'P 1'
_cell_length_a   8.79933100
_cell_length_b   10.18129800
_cell_length_c   19.72191700
_cell_angle_alpha   90.00000000
_cell_angle_beta   90.00000000
_cell_angle_gamma   90.00000000
_symmetry_Int_Tables_number   1
_chemical_formula_structural   CuNiC5
_chemical_formula_sum   'Cu16 Ni16 C80'
_cell_volume   1766.85915249
_cell_formula_units_Z   16
loop_
 _symmetry_equiv_pos_site_id
 _symmetry_equiv_pos_as_xyz
  1  'x, y, z'
loop_
 _atom_site_type_symbol
 _atom_site_label
 _atom_site_symmetry_multiplicity
 _atom_site_fract_x
 _atom_site_fract_y
 _atom_site_fract_z
 _atom_site_occupancy
  C  C0  1  0.88457200  0.17606900  0.37474000  1
  C  C1  1  0.38457200  0.32393100  0.62526000  1
  C  C2  1  0.11542800  0.67606900  0.12526000  1
  C  C3  1  0.61542800  0.82393100  0.87474000  1
  C  C4  1  0.11542800  0.82393100  0.62526000  1
  C  C5  1  0.61542800  0.67606900  0.37474000  1
  C  C6  1  0.88457200  0.32393100  0.87474000  1
  C  C7  1  0.38457200  0.17606900  0.12526000  1
  C  C8  1  0.37502700  0.31941100  0.38094000  1
  C  C9  1  0.87502700  0.18058900  0.61906000  1
  C  C10  1  0.62497300  0.81941100  0.11906000  1
  C  C11  1  0.12497300  0.68058900  0.88094000  1
  C  C12  1  0.62497300  0.68058900  0.61906000  1
  C  C13  1  0.12497300  0.81941100  0.38094000  1
  C  C14  1  0.37502700  0.18058900  0.88094000  1
  C  C15  1  0.87502700  0.31941100  0.11906000  1
  Ni  Ni16  1  0.91126100  0.60804600  0.49986200  1
  Ni  Ni17  1  0.41126100  0.89195400  0.50013800  1
  Ni  Ni18  1  0.08873900  0.10804600  0.00013800  1
  Ni  Ni19  1  0.58873900  0.39195400  0.99986200  1
  Ni  Ni20  1  0.08873900  0.39195400  0.50013800  1
  Ni  Ni21  1  0.58873900  0.10804600  0.49986200  1
  Ni  Ni22  1  0.91126100  0.89195400  0.99986200  1
  Ni  Ni23  1  0.41126100  0.60804600  0.00013800  1
  Ni  Ni24  1  0.22620400  0.06947800  0.27853700  1
  Ni  Ni25  1  0.72620400  0.43052200  0.72146300  1
  Ni  Ni26  1  0.77379600  0.56947800  0.22146300  1
  Ni  Ni27  1  0.27379600  0.93052200  0.77853700  1
  Ni  Ni28  1  0.77379600  0.93052200  0.72146300  1
  Ni  Ni29  1  0.27379600  0.56947800  0.27853700  1
  Ni  Ni30  1  0.22620400  0.43052200  0.77853700  1
  Ni  Ni31  1  0.72620400  0.06947800  0.22146300  1
  Cu  Cu32  1  0.75500700  0.42300500  0.49732800  1
  Cu  Cu33  1  0.25500700  0.07699500  0.50267200  1
  Cu  Cu34  1  0.24499300  0.92300500  0.00267200  1
  Cu  Cu35  1  0.74499300  0.57699500  0.99732800  1
  Cu  Cu36  1  0.24499300  0.57699500  0.50267200  1
  Cu  Cu37  1  0.74499300  0.92300500  0.49732800  1
  Cu  Cu38  1  0.75500700  0.07699500  0.99732800  1
  Cu  Cu39  1  0.25500700  0.42300500  0.00267200  1
  Cu  Cu40  1  0.48256500  0.01568400  0.29515100  1
  Cu  Cu41  1  0.98256500  0.48431600  0.70484900  1
  Cu  Cu42  1  0.51743500  0.51568400  0.20484900  1
  Cu  Cu43  1  0.01743500  0.98431600  0.79515100  1
  Cu  Cu44  1  0.51743500  0.98431600  0.70484900  1
  Cu  Cu45  1  0.01743500  0.51568400  0.29515100  1
  Cu  Cu46  1  0.48256500  0.48431600  0.79515100  1
  Cu  Cu47  1  0.98256500  0.01568400  0.20484900  1
  C  C48  1  0.79570700  0.59402800  0.49936600  1
  C  C49  1  0.29570700  0.90597200  0.50063400  1
  C  C50  1  0.20429300  0.09402800  0.00063400  1
  C  C51  1  0.70429300  0.40597200  0.99936600  1
  C  C52  1  0.20429300  0.40597200  0.50063400  1
  C  C53  1  0.70429300  0.09402800  0.49936600  1
  C  C54  1  0.79570700  0.90597200  0.99936600  1
  C  C55  1  0.29570700  0.59402800  0.00063400  1
  C  C56  1  0.91913100  0.34246000  0.49341900  1
  C  C57  1  0.41913100  0.15754000  0.50658100  1
  C  C58  1  0.08086900  0.84246000  0.00658100  1
  C  C59  1  0.58086900  0.65754000  0.99341900  1
  C  C60  1  0.08086900  0.65754000  0.50658100  1
  C  C61  1  0.58086900  0.84246000  0.49341900  1
  C  C62  1  0.91913100  0.15754000  0.99341900  1
  C  C63  1  0.41913100  0.34246000  0.00658100  1
  C  C64  1  0.66508600  0.39532400  0.56942600  1
  C  C65  1  0.16508600  0.10467600  0.43057400  1
  C  C66  1  0.33491400  0.89532400  0.93057400  1
  C  C67  1  0.83491400  0.60467600  0.06942600  1
  C  C68  1  0.33491400  0.60467600  0.43057400  1
  C  C69  1  0.83491400  0.89532400  0.56942600  1
  C  C70  1  0.66508600  0.10467600  0.06942600  1
  C  C71  1  0.16508600  0.39532400  0.93057400  1
  C  C72  1  0.65262400  0.40229800  0.42804500  1
  C  C73  1  0.15262400  0.09770200  0.57195500  1
  C  C74  1  0.34737600  0.90229800  0.07195500  1
  C  C75  1  0.84737600  0.59770200  0.92804500  1
  C  C76  1  0.34737600  0.59770200  0.57195500  1
  C  C77  1  0.84737600  0.90229800  0.42804500  1
  C  C78  1  0.65262400  0.09770200  0.92804500  1
  C  C79  1  0.15262400  0.40229800  0.07195500  1
  C  C80  1  0.56960700  0.00237200  0.21974900  1
  C  C81  1  0.06960700  0.49762800  0.78025100  1
  C  C82  1  0.43039300  0.50237200  0.28025100  1
  C  C83  1  0.93039300  0.99762800  0.71974900  1
  C  C84  1  0.43039300  0.99762800  0.78025100  1
  C  C85  1  0.93039300  0.50237200  0.21974900  1
  C  C86  1  0.56960700  0.49762800  0.71974900  1
  C  C87  1  0.06960700  0.00237200  0.28025100  1
  C  C88  1  0.32783900  0.12098500  0.27644300  1
  C  C89  1  0.82783900  0.37901500  0.72355700  1
  C  C90  1  0.67216100  0.62098500  0.22355700  1
  C  C91  1  0.17216100  0.87901500  0.77644300  1
  C  C92  1  0.67216100  0.87901500  0.72355700  1
  C  C93  1  0.17216100  0.62098500  0.27644300  1
  C  C94  1  0.32783900  0.37901500  0.77644300  1
  C  C95  1  0.82783900  0.12098500  0.22355700  1
  C  C96  1  0.41535200  0.87430600  0.32266100  1
  C  C97  1  0.91535200  0.62569400  0.67733900  1
  C  C98  1  0.58464800  0.37430600  0.17733900  1
  C  C99  1  0.08464800  0.12569400  0.82266100  1
  C  C100  1  0.58464800  0.12569400  0.67733900  1
  C  C101  1  0.08464800  0.37430600  0.32266100  1
  C  C102  1  0.41535200  0.62569400  0.82266100  1
  C  C103  1  0.91535200  0.87430600  0.17733900  1
  C  C104  1  0.58342200  0.10166500  0.34956000  1
  C  C105  1  0.08342200  0.39833500  0.65044000  1
  C  C106  1  0.41657800  0.60166500  0.15044000  1
  C  C107  1  0.91657800  0.89833500  0.84956000  1
  C  C108  1  0.41657800  0.89833500  0.65044000  1
  C  C109  1  0.91657800  0.60166500  0.34956000  1
  C  C110  1  0.58342200  0.39833500  0.84956000  1
  C  C111  1  0.08342200  0.10166500  0.15044000  1
