# generated using pymatgen
data_Cu3NiC24
_symmetry_space_group_name_H-M   'P 1'
_cell_length_a   10.51487500
_cell_length_b   7.73553600
_cell_length_c   7.74525644
_cell_angle_alpha   75.91128617
_cell_angle_beta   90.00000000
_cell_angle_gamma   90.00000000
_symmetry_Int_Tables_number   1
_chemical_formula_structural   Cu3NiC24
_chemical_formula_sum   'Cu6 Ni2 C48'
_cell_volume   611.03520742
_cell_formula_units_Z   2
loop_
 _symmetry_equiv_pos_site_id
 _symmetry_equiv_pos_as_xyz
  1  'x, y, z'
loop_
 _atom_site_type_symbol
 _atom_site_label
 _atom_site_symmetry_multiplicity
 _atom_site_fract_x
 _atom_site_fract_y
 _atom_site_fract_z
 _atom_site_occupancy
  C  C0  1  0.25104100  0.24994600  0.75046400  1
  C  C1  1  0.25007300  0.74987200  0.24958300  1
  C  C2  1  0.25047600  0.99997600  0.50026600  1
  C  C3  1  0.25059500  0.49996000  0.99993900  1
  C  C4  1  0.74992700  0.24987200  0.24958300  1
  C  C5  1  0.74952400  0.49997600  0.50026600  1
  C  C6  1  0.74895900  0.74994600  0.75046400  1
  C  C7  1  0.74940500  0.99996000  0.99993900  1
  Ni  Ni8  1  0.96735900  0.13531700  0.61430000  1
  Ni  Ni9  1  0.03264100  0.63531700  0.61430000  1
  Cu  Cu10  1  0.96719900  0.63685800  0.11327700  1
  Cu  Cu11  1  0.03280100  0.13685800  0.11327700  1
  Cu  Cu12  1  0.46748100  0.36247100  0.38712800  1
  Cu  Cu13  1  0.46752700  0.86235600  0.88807400  1
  Cu  Cu14  1  0.53251900  0.86247100  0.38712800  1
  Cu  Cu15  1  0.53247300  0.36235600  0.88807400  1
  C  C16  1  0.84390800  0.41639200  0.83550700  1
  C  C17  1  0.84459400  0.91687000  0.33118900  1
  C  C18  1  0.15540600  0.41687000  0.33118900  1
  C  C19  1  0.15609200  0.91639200  0.83550700  1
  C  C20  1  0.34595800  0.08376400  0.16633600  1
  C  C21  1  0.34701200  0.58341700  0.66650600  1
  C  C22  1  0.65404200  0.58376400  0.16633600  1
  C  C23  1  0.65298800  0.08341700  0.66650600  1
  C  C24  1  0.78986200  0.02107900  0.72867000  1
  C  C25  1  0.79119800  0.52203500  0.22811300  1
  C  C26  1  0.84815000  0.25398800  0.99501300  1
  C  C27  1  0.84819400  0.75725100  0.49364900  1
  C  C28  1  0.91446700  0.08641100  0.36264000  1
  C  C29  1  0.91331500  0.38486800  0.66592400  1
  C  C30  1  0.91462600  0.88069300  0.16362800  1
  C  C31  1  0.91348600  0.58464600  0.87159900  1
  C  C32  1  0.08537400  0.38069300  0.16362800  1
  C  C33  1  0.08651400  0.08464600  0.87159900  1
  C  C34  1  0.08668500  0.88486800  0.66592400  1
  C  C35  1  0.08553300  0.58641100  0.36264000  1
  C  C36  1  0.15180600  0.25725100  0.49364900  1
  C  C37  1  0.15185000  0.75398800  0.99501300  1
  C  C38  1  0.20880200  0.02203500  0.22811300  1
  C  C39  1  0.21013800  0.52107900  0.72867000  1
  C  C40  1  0.29302300  0.47770500  0.27057000  1
  C  C41  1  0.29330500  0.97815000  0.77362700  1
  C  C42  1  0.34917500  0.74470900  0.50531400  1
  C  C43  1  0.34931000  0.24495100  0.00519700  1
  C  C44  1  0.41589700  0.11808800  0.33497000  1
  C  C45  1  0.41676300  0.41499400  0.63158300  1
  C  C46  1  0.41584300  0.91496300  0.13203100  1
  C  C47  1  0.41664900  0.61827000  0.83490500  1
  C  C48  1  0.58410300  0.61808800  0.33497000  1
  C  C49  1  0.58323700  0.91499400  0.63158300  1
  C  C50  1  0.58415700  0.41496300  0.13203100  1
  C  C51  1  0.58335100  0.11827000  0.83490500  1
  C  C52  1  0.65069000  0.74495100  0.00519700  1
  C  C53  1  0.65082500  0.24470900  0.50531400  1
  C  C54  1  0.70697700  0.97770500  0.27057000  1
  C  C55  1  0.70669500  0.47815000  0.77362700  1
