# generated using pymatgen
data_Cu8Ni2C13
_symmetry_space_group_name_H-M   'P 1'
_cell_length_a   7.34800600
_cell_length_b   7.50767900
_cell_length_c   10.24963713
_cell_angle_alpha   54.16747519
_cell_angle_beta   90.00000000
_cell_angle_gamma   90.00000000
_symmetry_Int_Tables_number   1
_chemical_formula_structural   Cu8Ni2C13
_chemical_formula_sum   'Cu16 Ni4 C26'
_cell_volume   458.41709440
_cell_formula_units_Z   2
loop_
 _symmetry_equiv_pos_site_id
 _symmetry_equiv_pos_as_xyz
  1  'x, y, z'
loop_
 _atom_site_type_symbol
 _atom_site_label
 _atom_site_symmetry_multiplicity
 _atom_site_fract_x
 _atom_site_fract_y
 _atom_site_fract_z
 _atom_site_occupancy
  C  C0  1  0.00000000  0.00000000  0.50000000  1
  C  C1  1  0.50000000  0.00000000  0.00000000  1
  C  C2  1  0.06422700  0.56857600  0.21097300  1
  C  C3  1  0.13465600  0.33213400  0.10734300  1
  C  C4  1  0.66999900  0.68824900  0.02599600  1
  C  C5  1  0.93577300  0.43142400  0.78902700  1
  C  C6  1  0.72301000  0.71960600  0.64123000  1
  C  C7  1  0.60499700  0.20720500  0.45765700  1
  C  C8  1  0.22301000  0.28039400  0.85877000  1
  C  C9  1  0.10499700  0.79279500  0.04234300  1
  C  C10  1  0.43577300  0.56857600  0.71097300  1
  C  C11  1  0.83000100  0.68824900  0.52599600  1
  C  C12  1  0.36534400  0.33213400  0.60734300  1
  C  C13  1  0.56422700  0.43142400  0.28902700  1
  C  C14  1  0.63465600  0.66786600  0.39265700  1
  C  C15  1  0.16999900  0.31175100  0.47400400  1
  C  C16  1  0.89500300  0.20720500  0.95765700  1
  C  C17  1  0.77699000  0.71960600  0.14123000  1
  C  C18  1  0.39500300  0.79279500  0.54234300  1
  C  C19  1  0.27699000  0.28039400  0.35877000  1
  C  C20  1  0.86534400  0.66786600  0.89265700  1
  C  C21  1  0.33000100  0.31175100  0.97400400  1
  C  C22  1  0.18359700  0.96845000  0.24693300  1
  C  C23  1  0.31640300  0.96845000  0.74693300  1
  C  C24  1  0.68359700  0.03155000  0.25306700  1
  C  C25  1  0.81640300  0.03155000  0.75306700  1
  Ni  Ni26  1  0.67931500  0.10661600  0.07709300  1
  Ni  Ni27  1  0.82068500  0.10661600  0.57709300  1
  Ni  Ni28  1  0.17931500  0.89338400  0.42290700  1
  Ni  Ni29  1  0.32068500  0.89338400  0.92290700  1
  Cu  Cu30  1  0.85755600  0.11731300  0.28552800  1
  Cu  Cu31  1  0.50580400  0.30039300  0.38254500  1
  Cu  Cu32  1  0.74842600  0.74670800  0.86208500  1
  Cu  Cu33  1  0.35293300  0.29824300  0.88232400  1
  Cu  Cu34  1  0.85293300  0.70175700  0.61767600  1
  Cu  Cu35  1  0.24842600  0.25329200  0.63791500  1
  Cu  Cu36  1  0.00580400  0.69960700  0.11745500  1
  Cu  Cu37  1  0.35755600  0.88268700  0.21447200  1
  Cu  Cu38  1  0.64244400  0.11731300  0.78552800  1
  Cu  Cu39  1  0.99419600  0.30039300  0.88254500  1
  Cu  Cu40  1  0.75157400  0.74670800  0.36208500  1
  Cu  Cu41  1  0.14706700  0.29824300  0.38232400  1
  Cu  Cu42  1  0.64706700  0.70175700  0.11767600  1
  Cu  Cu43  1  0.25157400  0.25329200  0.13791500  1
  Cu  Cu44  1  0.49419600  0.69960700  0.61745500  1
  Cu  Cu45  1  0.14244400  0.88268700  0.71447200  1
