# generated using pymatgen
data_Cu6Ni26C19
_symmetry_space_group_name_H-M   'P 1'
_cell_length_a   7.27960200
_cell_length_b   10.48225307
_cell_length_c   18.99876399
_cell_angle_alpha   78.68198122
_cell_angle_beta   86.42117076
_cell_angle_gamma   72.70909496
_symmetry_Int_Tables_number   1
_chemical_formula_structural   Cu6Ni26C19
_chemical_formula_sum   'Cu12 Ni52 C38'
_cell_volume   1357.28356934
_cell_formula_units_Z   2
loop_
 _symmetry_equiv_pos_site_id
 _symmetry_equiv_pos_as_xyz
  1  'x, y, z'
loop_
 _atom_site_type_symbol
 _atom_site_label
 _atom_site_symmetry_multiplicity
 _atom_site_fract_x
 _atom_site_fract_y
 _atom_site_fract_z
 _atom_site_occupancy
  C  C0  1  0.51168200  0.49323100  0.90559300  1
  C  C1  1  0.48831800  0.50676900  0.09440700  1
  C  C2  1  0.20544400  0.81721800  0.79363700  1
  C  C3  1  0.79455600  0.18278200  0.20636300  1
  C  C4  1  0.83191200  0.08879600  0.70505700  1
  C  C5  1  0.16808800  0.91120400  0.29494300  1
  C  C6  1  0.38400200  0.99498500  0.59117300  1
  C  C7  1  0.61599800  0.00501500  0.40882700  1
  C  C8  1  0.88604600  0.86690400  0.01198200  1
  C  C9  1  0.11395400  0.13309600  0.98801800  1
  C  C10  1  0.31525800  0.56492000  0.56054900  1
  C  C11  1  0.68474200  0.43508000  0.43945100  1
  Ni  Ni12  1  0.22064800  0.43298400  0.02119500  1
  Ni  Ni13  1  0.77935200  0.56701600  0.97880500  1
  Ni  Ni14  1  0.15666000  0.58088700  0.97572500  1
  Ni  Ni15  1  0.84334000  0.41911300  0.02427500  1
  Ni  Ni16  1  0.76149800  0.38634800  0.79644000  1
  Ni  Ni17  1  0.23850200  0.61365200  0.20356000  1
  Ni  Ni18  1  0.91772800  0.38341100  0.85115300  1
  Ni  Ni19  1  0.08227200  0.61658900  0.14884700  1
  Ni  Ni20  1  0.31560800  0.52773700  0.75777100  1
  Ni  Ni21  1  0.68439200  0.47226300  0.24222900  1
  Ni  Ni22  1  0.18868200  0.52845300  0.82472200  1
  Ni  Ni23  1  0.81131800  0.47154700  0.17527800  1
  Ni  Ni24  1  0.57088400  0.75522300  0.88960600  1
  Ni  Ni25  1  0.42911600  0.24477700  0.11039400  1
  Ni  Ni26  1  0.37556200  0.78434900  0.93041800  1
  Ni  Ni27  1  0.62443800  0.21565100  0.06958200  1
  Ni  Ni28  1  0.91154200  0.78218200  0.71149900  1
  Ni  Ni29  1  0.08845800  0.21781800  0.28850100  1
  Ni  Ni30  1  0.04039400  0.84185100  0.65350100  1
  Ni  Ni31  1  0.95960600  0.15814900  0.34649900  1
  Ni  Ni32  1  0.55991500  0.78842900  0.70919500  1
  Ni  Ni33  1  0.44008500  0.21157100  0.29080500  1
  Ni  Ni34  1  0.50192300  0.92595400  0.73746800  1
  Ni  Ni35  1  0.49807700  0.07404600  0.26253200  1
  Ni  Ni36  1  0.12187700  0.10837000  0.81544300  1
  Ni  Ni37  1  0.87812300  0.89163000  0.18455700  1
  Ni  Ni38  1  0.94886200  0.05763300  0.84419200  1
  Ni  Ni39  1  0.05113800  0.94236700  0.15580800  1
  Ni  Ni40  1  0.50413100  0.07853500  0.81821300  1
  Ni  Ni41  1  0.49586900  0.92146500  0.18178700  1
  Ni  Ni42  1  0.67949500  0.94582000  0.83026400  1
  Ni  Ni43  1  0.32050500  0.05418000  0.16973600  1
  Ni  Ni44  1  0.72240400  0.37407900  0.67678900  1
  Ni  Ni45  1  0.27759600  0.62592100  0.32321100  1
  Ni  Ni46  1  0.55091200  0.33811600  0.71847300  1
  Ni  Ni47  1  0.44908800  0.66188400  0.28152700  1
  Ni  Ni48  1  0.99824300  0.18829100  0.57066000  1
  Ni  Ni49  1  0.00175700  0.81170900  0.42934000  1
  Ni  Ni50  1  0.09768100  0.24280200  0.62521200  1
  Ni  Ni51  1  0.90231900  0.75719800  0.37478800  1
  Ni  Ni52  1  0.62918200  0.16544100  0.56854100  1
  Ni  Ni53  1  0.37081800  0.83455900  0.43145900  1
  Ni  Ni54  1  0.47599400  0.22531500  0.62580200  1
  Ni  Ni55  1  0.52400600  0.77468500  0.37419800  1
  Ni  Ni56  1  0.80363600  0.85361900  0.54348400  1
  Ni  Ni57  1  0.19636400  0.14638100  0.45651600  1
  Ni  Ni58  1  0.66558200  0.76974300  0.53460000  1
  Ni  Ni59  1  0.33441800  0.23025700  0.46540000  1
  Ni  Ni60  1  0.84541000  0.60397700  0.68152900  1
  Ni  Ni61  1  0.15459000  0.39602300  0.31847100  1
  Ni  Ni62  1  0.78323900  0.57762500  0.76228000  1
  Ni  Ni63  1  0.21676100  0.42237500  0.23772000  1
  Cu  Cu64  1  0.23866900  0.86986400  0.03566500  1
  Cu  Cu65  1  0.76133100  0.13013600  0.96433500  1
  Cu  Cu66  1  0.75446700  0.76028800  0.12601200  1
  Cu  Cu67  1  0.24553300  0.23971200  0.87398800  1
  Cu  Cu68  1  0.89105000  0.74500600  0.90927700  1
  Cu  Cu69  1  0.10895000  0.25499400  0.09072300  1
  Cu  Cu70  1  0.69035700  0.52845000  0.55793700  1
  Cu  Cu71  1  0.30964300  0.47155000  0.44206300  1
  Cu  Cu72  1  0.22942900  0.41242700  0.66797200  1
  Cu  Cu73  1  0.77057100  0.58757300  0.33202800  1
  Cu  Cu74  1  0.14934300  0.81613000  0.53636000  1
  Cu  Cu75  1  0.85065700  0.18387000  0.46364000  1
  C  C76  1  0.27102900  0.50991600  0.99840700  1
  C  C77  1  0.72897100  0.49008400  0.00159300  1
  C  C78  1  0.79094300  0.43970400  0.82990700  1
  C  C79  1  0.20905700  0.56029600  0.17009300  1
  C  C80  1  0.29159200  0.56526000  0.80245800  1
  C  C81  1  0.70840800  0.43474000  0.19754200  1
  C  C82  1  0.44138200  0.74234600  0.88981600  1
  C  C83  1  0.55861800  0.25765400  0.11018400  1
  C  C84  1  0.98163400  0.85140600  0.70135800  1
  C  C85  1  0.01836600  0.14859400  0.29864200  1
  C  C86  1  0.44957800  0.86948200  0.71235800  1
  C  C87  1  0.55042200  0.13051800  0.28764200  1
  C  C88  1  0.04596100  0.04855700  0.80581300  1
  C  C89  1  0.95403900  0.95144300  0.19418700  1
  C  C90  1  0.60495900  0.01792000  0.79228800  1
  C  C91  1  0.39504100  0.98208000  0.20771200  1
  C  C92  1  0.69112900  0.32379100  0.72344100  1
  C  C93  1  0.30887100  0.67620900  0.27655900  1
  C  C94  1  0.06566100  0.16148600  0.61751800  1
  C  C95  1  0.93433900  0.83851400  0.38248200  1
  C  C96  1  0.56871800  0.14060000  0.61533500  1
  C  C97  1  0.43128200  0.85940000  0.38466500  1
  C  C98  1  0.66781200  0.86413300  0.53298000  1
  C  C99  1  0.33218800  0.13586700  0.46702000  1
  C  C100  1  0.77655600  0.65180700  0.71935700  1
  C  C101  1  0.22344400  0.34819300  0.28064300  1
