# generated using pymatgen
data_Cu8Ni2C3
_symmetry_space_group_name_H-M   'P 1'
_cell_length_a   9.30277600
_cell_length_b   6.38742500
_cell_length_c   9.78643464
_cell_angle_alpha   70.73870047
_cell_angle_beta   90.00000000
_cell_angle_gamma   90.00000000
_symmetry_Int_Tables_number   1
_chemical_formula_structural   Cu8Ni2C3
_chemical_formula_sum   'Cu32 Ni8 C12'
_cell_volume   548.96657819
_cell_formula_units_Z   4
loop_
 _symmetry_equiv_pos_site_id
 _symmetry_equiv_pos_as_xyz
  1  'x, y, z'
loop_
 _atom_site_type_symbol
 _atom_site_label
 _atom_site_symmetry_multiplicity
 _atom_site_fract_x
 _atom_site_fract_y
 _atom_site_fract_z
 _atom_site_occupancy
  C  C0  1  0.10212800  0.22496800  0.31552300  1
  C  C1  1  0.39787200  0.22496800  0.81552300  1
  C  C2  1  0.60212800  0.77503200  0.18447700  1
  C  C3  1  0.89787200  0.77503200  0.68447700  1
  C  C4  1  0.12310200  0.40427800  0.94449900  1
  C  C5  1  0.11675400  0.90770000  0.93242800  1
  C  C6  1  0.37689800  0.40427800  0.44449900  1
  C  C7  1  0.38324600  0.90770000  0.43242800  1
  C  C8  1  0.62310200  0.59572200  0.55550100  1
  C  C9  1  0.61675400  0.09230000  0.56757200  1
  C  C10  1  0.87689800  0.59572200  0.05550100  1
  C  C11  1  0.88324600  0.09230000  0.06757200  1
  Ni  Ni12  1  0.16268400  0.55506800  0.63275700  1
  Ni  Ni13  1  0.16045500  0.06481700  0.63624400  1
  Ni  Ni14  1  0.33954500  0.06481700  0.13624400  1
  Ni  Ni15  1  0.33731600  0.55506800  0.13275700  1
  Ni  Ni16  1  0.66268400  0.44493200  0.86724300  1
  Ni  Ni17  1  0.66045500  0.93518300  0.86375600  1
  Ni  Ni18  1  0.83731600  0.44493200  0.36724300  1
  Ni  Ni19  1  0.83954500  0.93518300  0.36375600  1
  Cu  Cu20  1  0.99605400  0.80910300  0.10181800  1
  Cu  Cu21  1  0.00005600  0.33686000  0.11446100  1
  Cu  Cu22  1  0.02979100  0.03528600  0.63202700  1
  Cu  Cu23  1  0.03294200  0.58992400  0.61822000  1
  Cu  Cu24  1  0.25032600  0.60449000  0.51518900  1
  Cu  Cu25  1  0.23879300  0.13982900  0.51331200  1
  Cu  Cu26  1  0.23427700  0.02110900  0.75685700  1
  Cu  Cu27  1  0.23002300  0.47605500  0.75804200  1
  Cu  Cu28  1  0.26572300  0.02110900  0.25685700  1
  Cu  Cu29  1  0.26997700  0.47605500  0.25804200  1
  Cu  Cu30  1  0.26120700  0.13982900  0.01331200  1
  Cu  Cu31  1  0.24967400  0.60449000  0.01518900  1
  Cu  Cu32  1  0.46705800  0.58992400  0.11822000  1
  Cu  Cu33  1  0.47020900  0.03528600  0.13202700  1
  Cu  Cu34  1  0.49994400  0.33686000  0.61446100  1
  Cu  Cu35  1  0.50394600  0.80910300  0.60181800  1
  Cu  Cu36  1  0.50005600  0.66314000  0.38553900  1
  Cu  Cu37  1  0.49605400  0.19089700  0.39818200  1
  Cu  Cu38  1  0.53294200  0.41007600  0.88178000  1
  Cu  Cu39  1  0.52979100  0.96471400  0.86797300  1
  Cu  Cu40  1  0.75032600  0.39551000  0.98481100  1
  Cu  Cu41  1  0.73879300  0.86017100  0.98668800  1
  Cu  Cu42  1  0.73002300  0.52394500  0.74195800  1
  Cu  Cu43  1  0.73427700  0.97889100  0.74314300  1
  Cu  Cu44  1  0.76572300  0.97889100  0.24314300  1
  Cu  Cu45  1  0.76997700  0.52394500  0.24195800  1
  Cu  Cu46  1  0.74967400  0.39551000  0.48481100  1
  Cu  Cu47  1  0.76120700  0.86017100  0.48668800  1
  Cu  Cu48  1  0.97020900  0.96471400  0.36797300  1
  Cu  Cu49  1  0.96705800  0.41007600  0.38178000  1
  Cu  Cu50  1  0.99994400  0.66314000  0.88553900  1
  Cu  Cu51  1  0.00394600  0.19089700  0.89818200  1
