# generated using pymatgen
data_CuNiC7
_symmetry_space_group_name_H-M   'P 1'
_cell_length_a   9.32454274
_cell_length_b   9.32454274
_cell_length_c   6.95879155
_cell_angle_alpha   84.35973649
_cell_angle_beta   84.35973649
_cell_angle_gamma   122.15088068
_symmetry_Int_Tables_number   1
_chemical_formula_structural   CuNiC7
_chemical_formula_sum   'Cu4 Ni4 C28'
_cell_volume   501.57474988
_cell_formula_units_Z   4
loop_
 _symmetry_equiv_pos_site_id
 _symmetry_equiv_pos_as_xyz
  1  'x, y, z'
loop_
 _atom_site_type_symbol
 _atom_site_label
 _atom_site_symmetry_multiplicity
 _atom_site_fract_x
 _atom_site_fract_y
 _atom_site_fract_z
 _atom_site_occupancy
  C  C0  1  0.72705800  0.69488700  0.23270700  1
  C  C1  1  0.30511300  0.27294200  0.26729300  1
  C  C2  1  0.27294200  0.30511300  0.76729300  1
  C  C3  1  0.69488700  0.72705800  0.73270700  1
  C  C4  1  0.68354800  0.52820900  0.41900000  1
  C  C5  1  0.47179100  0.31645200  0.08100000  1
  C  C6  1  0.31645200  0.47179100  0.58100000  1
  C  C7  1  0.52820900  0.68354800  0.91900000  1
  C  C8  1  0.04267900  0.51622700  0.23573500  1
  C  C9  1  0.48377300  0.95732100  0.26426500  1
  C  C10  1  0.95732100  0.48377300  0.76426500  1
  C  C11  1  0.51622700  0.04267900  0.73573500  1
  C  C12  1  0.84686200  0.41274500  0.40046100  1
  C  C13  1  0.58725500  0.15313800  0.09953900  1
  C  C14  1  0.15313800  0.58725500  0.59953900  1
  C  C15  1  0.41274500  0.84686200  0.90046100  1
  C  C16  1  0.00000000  0.00000000  0.00000000  1
  C  C17  1  0.00000000  0.00000000  0.50000000  1
  Ni  Ni18  1  0.89757400  0.62083100  0.20843200  1
  Ni  Ni19  1  0.37916900  0.10242600  0.29156800  1
  Ni  Ni20  1  0.10242600  0.37916900  0.79156800  1
  Ni  Ni21  1  0.62083100  0.89757400  0.70843200  1
  Cu  Cu22  1  0.04064600  0.77428200  0.00810700  1
  Cu  Cu23  1  0.22571800  0.95935400  0.49189300  1
  Cu  Cu24  1  0.95935400  0.22571800  0.99189300  1
  Cu  Cu25  1  0.77428200  0.04064600  0.50810700  1
  C  C26  1  0.37266400  0.62733600  0.25000000  1
  C  C27  1  0.62733600  0.37266400  0.75000000  1
  C  C28  1  0.75565200  0.61024200  0.28812200  1
  C  C29  1  0.38975800  0.24434800  0.21187800  1
  C  C30  1  0.24434800  0.38975800  0.71187800  1
  C  C31  1  0.61024200  0.75565200  0.78812200  1
  C  C32  1  0.92757400  0.50271000  0.28016000  1
  C  C33  1  0.49729000  0.07242600  0.21984000  1
  C  C34  1  0.07242600  0.49729000  0.71984000  1
  C  C35  1  0.50271000  0.92757400  0.78016000  1
