# generated using pymatgen
data_Cu2NiC6
_symmetry_space_group_name_H-M   'P 1'
_cell_length_a   7.40820000
_cell_length_b   8.25755200
_cell_length_c   27.44080000
_cell_angle_alpha   90.00000000
_cell_angle_beta   90.00000000
_cell_angle_gamma   90.00000000
_symmetry_Int_Tables_number   1
_chemical_formula_structural   Cu2NiC6
_chemical_formula_sum   'Cu8 Ni4 C24'
_cell_volume   1678.65243305
_cell_formula_units_Z   4
loop_
 _symmetry_equiv_pos_site_id
 _symmetry_equiv_pos_as_xyz
  1  'x, y, z'
loop_
 _atom_site_type_symbol
 _atom_site_label
 _atom_site_symmetry_multiplicity
 _atom_site_fract_x
 _atom_site_fract_y
 _atom_site_fract_z
 _atom_site_occupancy
  Ni  Ni0  1  0.00000000  0.25000000  0.37830700  1
  Ni  Ni1  1  0.00000000  0.75000000  0.62169300  1
  Ni  Ni2  1  0.50000000  0.25000000  0.87830700  1
  Ni  Ni3  1  0.50000000  0.75000000  0.12169300  1
  Cu  Cu4  1  0.00000000  0.25000000  0.04586200  1
  Cu  Cu5  1  0.00000000  0.75000000  0.28663200  1
  Cu  Cu6  1  0.00000000  0.25000000  0.71336800  1
  Cu  Cu7  1  0.00000000  0.75000000  0.95413800  1
  Cu  Cu8  1  0.50000000  0.25000000  0.21336800  1
  Cu  Cu9  1  0.50000000  0.75000000  0.78663200  1
  Cu  Cu10  1  0.50000000  0.25000000  0.54586200  1
  Cu  Cu11  1  0.50000000  0.75000000  0.45413800  1
  C  C12  1  0.23132100  0.56690100  0.03417100  1
  C  C13  1  0.23132100  0.06690100  0.96582900  1
  C  C14  1  0.24438800  0.55808800  0.21069100  1
  C  C15  1  0.24438800  0.05808800  0.78930900  1
  C  C16  1  0.24355000  0.60585800  0.37142900  1
  C  C17  1  0.24355000  0.10585800  0.62857100  1
  C  C18  1  0.25645000  0.10585800  0.12857100  1
  C  C19  1  0.25645000  0.60585800  0.87142900  1
  C  C20  1  0.25561200  0.05808800  0.28930900  1
  C  C21  1  0.25561200  0.55808800  0.71069100  1
  C  C22  1  0.26867900  0.06690100  0.46582900  1
  C  C23  1  0.26867900  0.56690100  0.53417100  1
  C  C24  1  0.73132100  0.93309900  0.53417100  1
  C  C25  1  0.73132100  0.43309900  0.46582900  1
  C  C26  1  0.74438800  0.44191200  0.28930900  1
  C  C27  1  0.74438800  0.94191200  0.71069100  1
  C  C28  1  0.74355000  0.89414200  0.87142900  1
  C  C29  1  0.74355000  0.39414200  0.12857100  1
  C  C30  1  0.75645000  0.89414200  0.37142900  1
  C  C31  1  0.75645000  0.39414200  0.62857100  1
  C  C32  1  0.75561200  0.94191200  0.21069100  1
  C  C33  1  0.75561200  0.44191200  0.78930900  1
  C  C34  1  0.76867900  0.93309900  0.03417100  1
  C  C35  1  0.76867900  0.43309900  0.96582900  1
