# generated using pymatgen
data_Cu5NiC30
_symmetry_space_group_name_H-M   'P 1'
_cell_length_a   8.45892552
_cell_length_b   8.45892552
_cell_length_c   8.45892565
_cell_angle_alpha   61.14677522
_cell_angle_beta   61.14677522
_cell_angle_gamma   61.14677290
_symmetry_Int_Tables_number   1
_chemical_formula_structural   Cu5NiC30
_chemical_formula_sum   'Cu5 Ni1 C30'
_cell_volume   439.03131230
_cell_formula_units_Z   1
loop_
 _symmetry_equiv_pos_site_id
 _symmetry_equiv_pos_as_xyz
  1  'x, y, z'
loop_
 _atom_site_type_symbol
 _atom_site_label
 _atom_site_symmetry_multiplicity
 _atom_site_fract_x
 _atom_site_fract_y
 _atom_site_fract_z
 _atom_site_occupancy
  Ni  Ni0  1  0.85453500  0.85453500  0.85453500  1
  Cu  Cu1  1  0.00172100  0.00172100  0.00172100  1
  Cu  Cu2  1  0.35931300  0.35931300  0.35931300  1
  Cu  Cu3  1  0.50096900  0.50096900  0.50096900  1
  Cu  Cu4  1  0.14318000  0.14318000  0.14318000  1
  Cu  Cu5  1  0.64161700  0.64161700  0.64161700  1
  C  C6  1  0.74890100  0.04570500  0.45285800  1
  C  C7  1  0.04570500  0.45285800  0.74890100  1
  C  C8  1  0.45285800  0.74890100  0.04570500  1
  C  C9  1  0.54744100  0.24983700  0.95287600  1
  C  C10  1  0.95287600  0.54744100  0.24983700  1
  C  C11  1  0.24983700  0.95287600  0.54744100  1
  C  C12  1  0.89333600  0.49482600  0.67648700  1
  C  C13  1  0.49482600  0.67648700  0.89333600  1
  C  C14  1  0.67648700  0.89333600  0.49482600  1
  C  C15  1  0.91146800  0.05522300  0.25911900  1
  C  C16  1  0.82506400  0.98271100  0.62131600  1
  C  C17  1  0.59747900  0.24275700  0.45324600  1
  C  C18  1  0.05522300  0.25911900  0.91146800  1
  C  C19  1  0.24275700  0.45324600  0.59747900  1
  C  C20  1  0.39091200  0.18435700  0.98909800  1
  C  C21  1  0.45324600  0.59747900  0.24275700  1
  C  C22  1  0.74935200  0.08381900  0.93146200  1
  C  C23  1  0.98909800  0.39091200  0.18435700  1
  C  C24  1  0.98271100  0.62131600  0.82506400  1
  C  C25  1  0.25911900  0.91146800  0.05522300  1
  C  C26  1  0.56445600  0.40491200  0.75267500  1
  C  C27  1  0.62131600  0.82506400  0.98271100  1
  C  C28  1  0.75267500  0.56445600  0.40491200  1
  C  C29  1  0.93146200  0.74935200  0.08381900  1
  C  C30  1  0.40491200  0.75267500  0.56445600  1
  C  C31  1  0.18435700  0.98909800  0.39091200  1
  C  C32  1  0.08381900  0.93146200  0.74935200  1
  C  C33  1  0.31002600  0.10908400  0.51785200  1
  C  C34  1  0.51785200  0.31002600  0.10908400  1
  C  C35  1  0.10908400  0.51785200  0.31002600  1
