# generated using pymatgen
data_Cu5Ni2C3
_symmetry_space_group_name_H-M   'P 1'
_cell_length_a   5.73455100
_cell_length_b   5.90999300
_cell_length_c   18.11199300
_cell_angle_alpha   90.00000000
_cell_angle_beta   90.00000000
_cell_angle_gamma   90.00000000
_symmetry_Int_Tables_number   1
_chemical_formula_structural   Cu5Ni2C3
_chemical_formula_sum   'Cu20 Ni8 C12'
_cell_volume   613.83638509
_cell_formula_units_Z   4
loop_
 _symmetry_equiv_pos_site_id
 _symmetry_equiv_pos_as_xyz
  1  'x, y, z'
loop_
 _atom_site_type_symbol
 _atom_site_label
 _atom_site_symmetry_multiplicity
 _atom_site_fract_x
 _atom_site_fract_y
 _atom_site_fract_z
 _atom_site_occupancy
  C  C0  1  0.17034200  0.53924700  0.59998100  1
  C  C1  1  0.17034200  0.53924700  0.90001900  1
  C  C2  1  0.23956800  0.96303800  0.75000000  1
  C  C3  1  0.26043200  0.46303800  0.25000000  1
  C  C4  1  0.32965800  0.03924700  0.09998100  1
  C  C5  1  0.32965800  0.03924700  0.40001900  1
  C  C6  1  0.67034200  0.96075300  0.90001900  1
  C  C7  1  0.67034200  0.96075300  0.59998100  1
  C  C8  1  0.73956800  0.53696200  0.75000000  1
  C  C9  1  0.76043200  0.03696200  0.25000000  1
  C  C10  1  0.82965800  0.46075300  0.40001900  1
  C  C11  1  0.82965800  0.46075300  0.09998100  1
  Ni  Ni12  1  0.04524300  0.22700300  0.17120200  1
  Ni  Ni13  1  0.04524300  0.22700300  0.32879800  1
  Ni  Ni14  1  0.45475700  0.72700300  0.82879800  1
  Ni  Ni15  1  0.45475700  0.72700300  0.67120200  1
  Ni  Ni16  1  0.54524300  0.27299700  0.17120200  1
  Ni  Ni17  1  0.54524300  0.27299700  0.32879800  1
  Ni  Ni18  1  0.95475700  0.77299700  0.67120200  1
  Ni  Ni19  1  0.95475700  0.77299700  0.82879800  1
  Cu  Cu20  1  0.13515400  0.40165800  0.75000000  1
  Cu  Cu21  1  0.10862000  0.29031900  0.02168000  1
  Cu  Cu22  1  0.10862000  0.29031900  0.47832000  1
  Cu  Cu23  1  0.16815100  0.66782400  0.12980000  1
  Cu  Cu24  1  0.16815100  0.66782400  0.37020000  1
  Cu  Cu25  1  0.33184900  0.16782400  0.87020000  1
  Cu  Cu26  1  0.33184900  0.16782400  0.62980000  1
  Cu  Cu27  1  0.39138000  0.79031900  0.52168000  1
  Cu  Cu28  1  0.39138000  0.79031900  0.97832000  1
  Cu  Cu29  1  0.36484600  0.90165800  0.25000000  1
  Cu  Cu30  1  0.63515400  0.09834200  0.75000000  1
  Cu  Cu31  1  0.60862000  0.20968100  0.02168000  1
  Cu  Cu32  1  0.60862000  0.20968100  0.47832000  1
  Cu  Cu33  1  0.66815100  0.83217600  0.37020000  1
  Cu  Cu34  1  0.66815100  0.83217600  0.12980000  1
  Cu  Cu35  1  0.83184900  0.33217600  0.62980000  1
  Cu  Cu36  1  0.83184900  0.33217600  0.87020000  1
  Cu  Cu37  1  0.89138000  0.70968100  0.97832000  1
  Cu  Cu38  1  0.89138000  0.70968100  0.52168000  1
  Cu  Cu39  1  0.86484600  0.59834200  0.25000000  1
