# generated using pymatgen
data_Cu4Ni5C3
_symmetry_space_group_name_H-M   'P 1'
_cell_length_a   7.88942100
_cell_length_b   6.63645600
_cell_length_c   16.02429298
_cell_angle_alpha   75.26619480
_cell_angle_beta   90.00000000
_cell_angle_gamma   90.00000000
_symmetry_Int_Tables_number   1
_chemical_formula_structural   Cu4Ni5C3
_chemical_formula_sum   'Cu16 Ni20 C12'
_cell_volume   811.40865022
_cell_formula_units_Z   4
loop_
 _symmetry_equiv_pos_site_id
 _symmetry_equiv_pos_as_xyz
  1  'x, y, z'
loop_
 _atom_site_type_symbol
 _atom_site_label
 _atom_site_symmetry_multiplicity
 _atom_site_fract_x
 _atom_site_fract_y
 _atom_site_fract_z
 _atom_site_occupancy
  Ni  Ni0  1  0.10603900  0.35786000  0.89514600  1
  Ni  Ni1  1  0.60603900  0.64214000  0.60485400  1
  Ni  Ni2  1  0.89396100  0.64214000  0.10485400  1
  Ni  Ni3  1  0.39396100  0.35786000  0.39514600  1
  Ni  Ni4  1  0.24225000  0.68965000  0.86615500  1
  Ni  Ni5  1  0.74225000  0.31035000  0.63384500  1
  Ni  Ni6  1  0.75775000  0.31035000  0.13384500  1
  Ni  Ni7  1  0.25775000  0.68965000  0.36615500  1
  Ni  Ni8  1  0.31285400  0.67867700  0.95115600  1
  Ni  Ni9  1  0.81285400  0.32132300  0.54884400  1
  Ni  Ni10  1  0.68714600  0.32132300  0.04884400  1
  Ni  Ni11  1  0.18714600  0.67867700  0.45115600  1
  Ni  Ni12  1  0.19859900  0.27035000  0.05081600  1
  Ni  Ni13  1  0.69859900  0.72965000  0.44918400  1
  Ni  Ni14  1  0.80140100  0.72965000  0.94918400  1
  Ni  Ni15  1  0.30140100  0.27035000  0.55081600  1
  Ni  Ni16  1  0.35985100  0.02600800  0.81617100  1
  Ni  Ni17  1  0.85985100  0.97399200  0.68382900  1
  Ni  Ni18  1  0.64014900  0.97399200  0.18382900  1
  Ni  Ni19  1  0.14014900  0.02600800  0.31617100  1
  Cu  Cu20  1  0.11664900  0.32596600  0.98522700  1
  Cu  Cu21  1  0.61664900  0.67403400  0.51477300  1
  Cu  Cu22  1  0.88335100  0.67403400  0.01477300  1
  Cu  Cu23  1  0.38335100  0.32596600  0.48522700  1
  Cu  Cu24  1  0.15196200  0.55195400  0.84254100  1
  Cu  Cu25  1  0.65196200  0.44804600  0.65745900  1
  Cu  Cu26  1  0.84803800  0.44804600  0.15745900  1
  Cu  Cu27  1  0.34803800  0.55195400  0.34254100  1
  Cu  Cu28  1  0.37552800  0.69332200  0.01529900  1
  Cu  Cu29  1  0.87552800  0.30667800  0.48470100  1
  Cu  Cu30  1  0.62447200  0.30667800  0.98470100  1
  Cu  Cu31  1  0.12447200  0.69332200  0.51529900  1
  Cu  Cu32  1  0.27989700  0.87332800  0.80678900  1
  Cu  Cu33  1  0.77989700  0.12667200  0.69321100  1
  Cu  Cu34  1  0.72010300  0.12667200  0.19321100  1
  Cu  Cu35  1  0.22010300  0.87332800  0.30678900  1
  C  C36  1  0.04748500  0.22329700  0.86389400  1
  C  C37  1  0.54748500  0.77670300  0.63610600  1
  C  C38  1  0.95251500  0.77670300  0.13610600  1
  C  C39  1  0.45251500  0.22329700  0.36389400  1
  C  C40  1  0.26802700  0.22387200  0.11826300  1
  C  C41  1  0.76802700  0.77612800  0.38173700  1
  C  C42  1  0.73197300  0.77612800  0.88173700  1
  C  C43  1  0.23197300  0.22387200  0.61826300  1
  C  C44  1  0.43250300  0.17842200  0.81736300  1
  C  C45  1  0.93250300  0.82157800  0.68263700  1
  C  C46  1  0.56749700  0.82157800  0.18263700  1
  C  C47  1  0.06749700  0.17842200  0.31736300  1
