# generated using pymatgen
data_CuNi2C17
_symmetry_space_group_name_H-M   'P 1'
_cell_length_a   10.88681738
_cell_length_b   10.88681738
_cell_length_c   10.88681738
_cell_angle_alpha   109.39029381
_cell_angle_beta   109.39029381
_cell_angle_gamma   109.63319580
_symmetry_Int_Tables_number   1
_chemical_formula_structural   CuNi2C17
_chemical_formula_sum   'Cu4 Ni8 C68'
_cell_volume   993.29515989
_cell_formula_units_Z   4
loop_
 _symmetry_equiv_pos_site_id
 _symmetry_equiv_pos_as_xyz
  1  'x, y, z'
loop_
 _atom_site_type_symbol
 _atom_site_label
 _atom_site_symmetry_multiplicity
 _atom_site_fract_x
 _atom_site_fract_y
 _atom_site_fract_z
 _atom_site_occupancy
  C  C0  1  0.87500000  0.74799900  0.37299900  1
  C  C1  1  0.25200100  0.62500000  0.12700100  1
  C  C2  1  0.49799900  0.12500000  0.87299900  1
  C  C3  1  0.87500000  0.24799900  0.87299900  1
  C  C4  1  0.37500000  0.50200100  0.62700100  1
  C  C5  1  0.75200100  0.62500000  0.62700100  1
  C  C6  1  0.99799900  0.12500000  0.37299900  1
  C  C7  1  0.37500000  0.00200100  0.12700100  1
  C  C8  1  0.24877200  0.12500000  0.62377200  1
  C  C9  1  0.50000000  0.50000000  0.00000000  1
  C  C10  1  0.25000000  0.75000000  0.50000000  1
  C  C11  1  0.87500000  0.99877200  0.62377200  1
  C  C12  1  0.87500000  0.49877200  0.12377200  1
  C  C13  1  0.50122800  0.62500000  0.37622800  1
  C  C14  1  0.74877200  0.12500000  0.12377200  1
  C  C15  1  0.37500000  0.25122800  0.37622800  1
  C  C16  1  0.00000000  0.00000000  0.00000000  1
  C  C17  1  0.37500000  0.75122800  0.87622800  1
  C  C18  1  0.75000000  0.25000000  0.50000000  1
  C  C19  1  0.00122800  0.62500000  0.87622800  1
  Ni  Ni20  1  0.62500000  0.37500000  0.25000000  1
  Ni  Ni21  1  0.12500000  0.37500000  0.75000000  1
  Ni  Ni22  1  0.12500000  0.37500000  0.25000000  1
  Ni  Ni23  1  0.62500000  0.87500000  0.75000000  1
  Ni  Ni24  1  0.62500000  0.87500000  0.25000000  1
  Ni  Ni25  1  0.12500000  0.87500000  0.75000000  1
  Ni  Ni26  1  0.12500000  0.87500000  0.25000000  1
  Ni  Ni27  1  0.62500000  0.37500000  0.75000000  1
  Cu  Cu28  1  0.50000000  0.00000000  0.50000000  1
  Cu  Cu29  1  0.00000000  0.50000000  0.50000000  1
  Cu  Cu30  1  0.25000000  0.25000000  0.00000000  1
  Cu  Cu31  1  0.75000000  0.75000000  0.00000000  1
  C  C32  1  0.82998900  0.95978400  0.43905500  1
  C  C33  1  0.43263100  0.17375100  0.66472500  1
  C  C34  1  0.72303200  0.26790100  0.65390500  1
  C  C35  1  0.10906500  0.97927100  0.43905500  1
  C  C36  1  0.63600400  0.68087300  0.15390500  1
  C  C37  1  0.92375100  0.68263100  0.16472500  1
  C  C38  1  0.23209900  0.77696800  0.34609500  1
  C  C39  1  0.11399600  0.76790100  0.54486900  1
  C  C40  1  0.73209400  0.99097400  0.66472500  1
  C  C41  1  0.43087300  0.88600400  0.65390500  1
  C  C42  1  0.51790100  0.36399600  0.04486900  1
  C  C43  1  0.04021600  0.47927100  0.87020500  1
  C  C44  1  0.50902600  0.76790600  0.33527500  1
  C  C45  1  0.72927100  0.35906500  0.93905500  1
  C  C46  1  0.82624900  0.49097400  0.25888000  1
  C  C47  1  0.24097400  0.07624900  0.75888000  1
  C  C48  1  0.02072900  0.45978400  0.12979500  1
  C  C49  1  0.31912700  0.47303200  0.95513100  1
  C  C50  1  0.22303200  0.56912700  0.45513100  1
  C  C51  1  0.92001100  0.85906500  0.62979500  1
  C  C52  1  0.54021600  0.67001100  0.56094500  1
  C  C53  1  0.31736900  0.48209400  0.24112000  1
  C  C54  1  0.60906500  0.17001100  0.12979500  1
  C  C55  1  0.01790600  0.18263100  0.75888000  1
  C  C56  1  0.23209400  0.56736900  0.74112000  1
  C  C57  1  0.64093500  0.57998900  0.37020500  1
  C  C58  1  0.93263100  0.26790600  0.25888000  1
  C  C59  1  0.70978400  0.07998900  0.93905500  1
  C  C60  1  0.32998900  0.89093500  0.87020500  1
  C  C61  1  0.02696800  0.18087300  0.04486900  1
  C  C62  1  0.93087300  0.27696800  0.54486900  1
  C  C63  1  0.22927100  0.29021600  0.37020500  1
  C  C64  1  0.00902600  0.67375100  0.74112000  1
  C  C65  1  0.42375100  0.25902600  0.24112000  1
  C  C66  1  0.52072900  0.39093500  0.56094500  1
  C  C67  1  0.74097400  0.98209400  0.16472500  1
  C  C68  1  0.20978400  0.27072900  0.62979500  1
  C  C69  1  0.73209900  0.38600400  0.45513100  1
  C  C70  1  0.81912700  0.86399600  0.84609500  1
  C  C71  1  0.51790600  0.75902600  0.83527500  1
  C  C72  1  0.13600400  0.98209900  0.95513100  1
  C  C73  1  0.01790100  0.97303200  0.15390500  1
  C  C74  1  0.32624900  0.06736900  0.33527500  1
  C  C75  1  0.61399600  0.06912700  0.34609500  1
  C  C76  1  0.14093500  0.77072900  0.06094500  1
  C  C77  1  0.81736900  0.57624900  0.83527500  1
  C  C78  1  0.52696800  0.48209900  0.84609500  1
  C  C79  1  0.42001100  0.79021600  0.06094500  1
