# generated using pymatgen
data_Cu(NiC)3
_symmetry_space_group_name_H-M   'P 1'
_cell_length_a   6.07280887
_cell_length_b   6.07280887
_cell_length_c   11.15924500
_cell_angle_alpha   90.00000000
_cell_angle_beta   90.00000000
_cell_angle_gamma   120.00000943
_symmetry_Int_Tables_number   1
_chemical_formula_structural   Cu(NiC)3
_chemical_formula_sum   'Cu4 Ni12 C12'
_cell_volume   356.40568916
_cell_formula_units_Z   4
loop_
 _symmetry_equiv_pos_site_id
 _symmetry_equiv_pos_as_xyz
  1  'x, y, z'
loop_
 _atom_site_type_symbol
 _atom_site_label
 _atom_site_symmetry_multiplicity
 _atom_site_fract_x
 _atom_site_fract_y
 _atom_site_fract_z
 _atom_site_occupancy
  Ni  Ni0  1  0.05845600  0.36478800  0.55761600  1
  Ni  Ni1  1  0.94154400  0.30633200  0.05761600  1
  Ni  Ni2  1  0.36478800  0.05845600  0.05761600  1
  Ni  Ni3  1  0.05845600  0.69366800  0.94238400  1
  Ni  Ni4  1  0.30633200  0.94154400  0.55761600  1
  Ni  Ni5  1  0.94154400  0.63521200  0.44238400  1
  Ni  Ni6  1  0.36478800  0.30633200  0.44238400  1
  Ni  Ni7  1  0.63521200  0.69366800  0.55761600  1
  Ni  Ni8  1  0.69366800  0.63521200  0.05761600  1
  Ni  Ni9  1  0.30633200  0.36478800  0.94238400  1
  Ni  Ni10  1  0.63521200  0.94154400  0.94238400  1
  Ni  Ni11  1  0.69366800  0.05845600  0.44238400  1
  Cu  Cu12  1  0.33333300  0.66666700  0.25000000  1
  Cu  Cu13  1  0.66666700  0.33333300  0.75000000  1
  Cu  Cu14  1  0.00000000  0.00000000  0.75000000  1
  Cu  Cu15  1  0.00000000  0.00000000  0.25000000  1
  C  C16  1  0.03555700  0.33259400  0.38278100  1
  C  C17  1  0.96444300  0.29703700  0.88278100  1
  C  C18  1  0.03555700  0.70296300  0.11721900  1
  C  C19  1  0.96444300  0.66740600  0.61721900  1
  C  C20  1  0.29703700  0.96444300  0.38278100  1
  C  C21  1  0.33259400  0.03555700  0.88278100  1
  C  C22  1  0.70296300  0.66740600  0.88278100  1
  C  C23  1  0.33259400  0.29703700  0.61721900  1
  C  C24  1  0.66740600  0.70296300  0.38278100  1
  C  C25  1  0.29703700  0.33259400  0.11721900  1
  C  C26  1  0.66740600  0.96444300  0.11721900  1
  C  C27  1  0.70296300  0.03555700  0.61721900  1
