# generated using pymatgen
data_Cu2Ni10C19
_symmetry_space_group_name_H-M   'P 1'
_cell_length_a   15.88607441
_cell_length_b   15.88607441
_cell_length_c   7.93695700
_cell_angle_alpha   90.00000000
_cell_angle_beta   90.00000000
_cell_angle_gamma   157.55601304
_symmetry_Int_Tables_number   1
_chemical_formula_structural   Cu2Ni10C19
_chemical_formula_sum   'Cu4 Ni20 C38'
_cell_volume   764.71647599
_cell_formula_units_Z   2
loop_
 _symmetry_equiv_pos_site_id
 _symmetry_equiv_pos_as_xyz
  1  'x, y, z'
loop_
 _atom_site_type_symbol
 _atom_site_label
 _atom_site_symmetry_multiplicity
 _atom_site_fract_x
 _atom_site_fract_y
 _atom_site_fract_z
 _atom_site_occupancy
  Ni  Ni0  1  0.96982300  0.03017700  0.34473500  1
  Ni  Ni1  1  0.89664900  0.10335100  0.66588300  1
  Ni  Ni2  1  0.85577400  0.14422600  0.20129900  1
  Ni  Ni3  1  0.78308900  0.21691100  0.81873900  1
  Ni  Ni4  1  0.93704300  0.55411200  0.00449300  1
  Ni  Ni5  1  0.44588800  0.06295700  0.00449300  1
  Ni  Ni6  1  0.60310900  0.39689100  0.16457700  1
  Ni  Ni7  1  0.30424500  0.18316900  0.49709000  1
  Ni  Ni8  1  0.81683100  0.69575500  0.49709000  1
  Ni  Ni9  1  0.52329200  0.47670800  0.81996200  1
  Ni  Ni10  1  0.47670800  0.52329200  0.31996200  1
  Ni  Ni11  1  0.69575500  0.81683100  0.99709000  1
  Ni  Ni12  1  0.18316900  0.30424500  0.99709000  1
  Ni  Ni13  1  0.39689100  0.60310900  0.66457700  1
  Ni  Ni14  1  0.55411200  0.93704300  0.50449300  1
  Ni  Ni15  1  0.06295700  0.44588800  0.50449300  1
  Ni  Ni16  1  0.21691100  0.78308900  0.31873900  1
  Ni  Ni17  1  0.14422600  0.85577400  0.70129900  1
  Ni  Ni18  1  0.10335100  0.89664900  0.16588300  1
  Ni  Ni19  1  0.03017700  0.96982300  0.84473500  1
  Cu  Cu20  1  0.75881300  0.24118700  0.17859600  1
  Cu  Cu21  1  0.61994900  0.38005100  0.78607000  1
  Cu  Cu22  1  0.38005100  0.61994900  0.28607000  1
  Cu  Cu23  1  0.24118700  0.75881300  0.67859600  1
  C  C24  1  0.97401500  0.02598500  0.91850900  1
  C  C25  1  0.91714900  0.08285100  0.45265900  1
  C  C26  1  0.90233500  0.09766500  0.07055200  1
  C  C27  1  0.83232200  0.16767800  0.64282500  1
  C  C28  1  0.80465800  0.19534200  0.05576200  1
  C  C29  1  0.78549100  0.21450900  0.37019200  1
  C  C30  1  0.73164000  0.26836000  0.95321700  1
  C  C31  1  0.49362500  0.02827100  0.20009700  1
  C  C32  1  0.97172900  0.50637500  0.20009700  1
  C  C33  1  0.87230100  0.57007600  0.80726000  1
  C  C34  1  0.42992400  0.12769900  0.80726000  1
  C  C35  1  0.65989100  0.34010900  0.09766200  1
  C  C36  1  0.59862400  0.40137600  0.60089400  1
  C  C37  1  0.34736000  0.15810600  0.28371500  1
  C  C38  1  0.84189400  0.65264000  0.28371500  1
  C  C39  1  0.58106500  0.41893500  0.93520100  1
  C  C40  1  0.27327500  0.21673200  0.70857300  1
  C  C41  1  0.78326800  0.72672500  0.70857300  1
  C  C42  1  0.52839800  0.47160200  0.42520700  1
  C  C43  1  0.47160200  0.52839800  0.92520700  1
  C  C44  1  0.72672500  0.78326800  0.20857300  1
  C  C45  1  0.21673200  0.27327500  0.20857300  1
  C  C46  1  0.41893500  0.58106500  0.43520100  1
  C  C47  1  0.65264000  0.84189400  0.78371500  1
  C  C48  1  0.15810600  0.34736000  0.78371500  1
  C  C49  1  0.40137600  0.59862400  0.10089400  1
  C  C50  1  0.34010900  0.65989100  0.59766200  1
  C  C51  1  0.57007600  0.87230100  0.30726000  1
  C  C52  1  0.12769900  0.42992400  0.30726000  1
  C  C53  1  0.50637500  0.97172900  0.70009700  1
  C  C54  1  0.02827100  0.49362500  0.70009700  1
  C  C55  1  0.26836000  0.73164000  0.45321700  1
  C  C56  1  0.21450900  0.78549100  0.87019200  1
  C  C57  1  0.19534200  0.80465800  0.55576200  1
  C  C58  1  0.16767800  0.83232200  0.14282500  1
  C  C59  1  0.09766500  0.90233500  0.57055200  1
  C  C60  1  0.08285100  0.91714900  0.95265900  1
  C  C61  1  0.02598500  0.97401500  0.41850900  1
