# generated using pymatgen
data_Cu3Ni2C31
_symmetry_space_group_name_H-M   'P 1'
_cell_length_a   8.55608297
_cell_length_b   8.55608297
_cell_length_c   8.55608298
_cell_angle_alpha   60.85326777
_cell_angle_beta   60.85326777
_cell_angle_gamma   60.85326983
_symmetry_Int_Tables_number   1
_chemical_formula_structural   Cu3Ni2C31
_chemical_formula_sum   'Cu3 Ni2 C31'
_cell_volume   451.42530151
_cell_formula_units_Z   1
loop_
 _symmetry_equiv_pos_site_id
 _symmetry_equiv_pos_as_xyz
  1  'x, y, z'
loop_
 _atom_site_type_symbol
 _atom_site_label
 _atom_site_symmetry_multiplicity
 _atom_site_fract_x
 _atom_site_fract_y
 _atom_site_fract_z
 _atom_site_occupancy
  C  C0  1  0.85441400  0.85441400  0.85441400  1
  Ni  Ni1  1  0.00038500  0.00038500  0.00038500  1
  Ni  Ni2  1  0.50109300  0.50109300  0.50109300  1
  Cu  Cu3  1  0.14335900  0.14335900  0.14335900  1
  Cu  Cu4  1  0.35869200  0.35869200  0.35869200  1
  Cu  Cu5  1  0.64348400  0.64348400  0.64348400  1
  C  C6  1  0.54339300  0.25095400  0.95498000  1
  C  C7  1  0.95498000  0.54339300  0.25095400  1
  C  C8  1  0.25095400  0.95498000  0.54339300  1
  C  C9  1  0.74955600  0.04636800  0.45417800  1
  C  C10  1  0.04636800  0.45417800  0.74955600  1
  C  C11  1  0.45417800  0.74955600  0.04636800  1
  C  C12  1  0.31368300  0.10837100  0.51212700  1
  C  C13  1  0.51212700  0.31368300  0.10837100  1
  C  C14  1  0.91030600  0.05817900  0.25909600  1
  C  C15  1  0.10837100  0.51212700  0.31368300  1
  C  C16  1  0.82140900  0.99004300  0.61627700  1
  C  C17  1  0.59687600  0.24405000  0.44684700  1
  C  C18  1  0.05817900  0.25909600  0.91030600  1
  C  C19  1  0.24405000  0.44684700  0.59687600  1
  C  C20  1  0.39156400  0.18252600  0.99150200  1
  C  C21  1  0.44684700  0.59687600  0.24405000  1
  C  C22  1  0.74416400  0.08983000  0.93262300  1
  C  C23  1  0.99150200  0.39156400  0.18252600  1
  C  C24  1  0.99004300  0.61627700  0.82140900  1
  C  C25  1  0.25909600  0.91030600  0.05817900  1
  C  C26  1  0.55757600  0.41075500  0.75660300  1
  C  C27  1  0.61627700  0.82140900  0.99004300  1
  C  C28  1  0.75660300  0.55757600  0.41075500  1
  C  C29  1  0.93262300  0.74416400  0.08983000  1
  C  C30  1  0.41075500  0.75660300  0.55757600  1
  C  C31  1  0.18252600  0.99150200  0.39156400  1
  C  C32  1  0.89678000  0.48949400  0.67846400  1
  C  C33  1  0.08983000  0.93262300  0.74416400  1
  C  C34  1  0.48949400  0.67846400  0.89678000  1
  C  C35  1  0.67846400  0.89678000  0.48949400  1
