# generated using pymatgen
data_Cu3NiC11
_symmetry_space_group_name_H-M   'P 1'
_cell_length_a   5.91525020
_cell_length_b   5.91525020
_cell_length_c   9.66869900
_cell_angle_alpha   90.00000000
_cell_angle_beta   90.00000000
_cell_angle_gamma   120.00000223
_symmetry_Int_Tables_number   1
_chemical_formula_structural   Cu3NiC11
_chemical_formula_sum   'Cu6 Ni2 C22'
_cell_volume   292.98467188
_cell_formula_units_Z   2
loop_
 _symmetry_equiv_pos_site_id
 _symmetry_equiv_pos_as_xyz
  1  'x, y, z'
loop_
 _atom_site_type_symbol
 _atom_site_label
 _atom_site_symmetry_multiplicity
 _atom_site_fract_x
 _atom_site_fract_y
 _atom_site_fract_z
 _atom_site_occupancy
  C  C0  1  0.82746200  0.17253800  0.55769300  1
  C  C1  1  0.82746200  0.65492400  0.55769300  1
  C  C2  1  0.34507600  0.17253800  0.55769300  1
  C  C3  1  0.65492400  0.82746200  0.05769300  1
  C  C4  1  0.17253800  0.34507600  0.05769300  1
  C  C5  1  0.17253800  0.82746200  0.05769300  1
  Ni  Ni6  1  0.66666700  0.33333300  0.00489200  1
  Ni  Ni7  1  0.33333300  0.66666700  0.50489200  1
  Cu  Cu8  1  0.83073000  0.16927000  0.28564100  1
  Cu  Cu9  1  0.83073000  0.66145900  0.28564100  1
  Cu  Cu10  1  0.33854100  0.16927000  0.28564100  1
  Cu  Cu11  1  0.66145900  0.83073000  0.78564100  1
  Cu  Cu12  1  0.16927000  0.33854100  0.78564100  1
  Cu  Cu13  1  0.16927000  0.83073000  0.78564100  1
  C  C14  1  0.00000000  0.00000000  0.17788500  1
  C  C15  1  0.00000000  0.00000000  0.67788500  1
  C  C16  1  0.83305700  0.16694300  0.91119100  1
  C  C17  1  0.96423200  0.48211600  0.15358200  1
  C  C18  1  0.51788400  0.03576800  0.15358200  1
  C  C19  1  0.66666700  0.33333300  0.40009400  1
  C  C20  1  0.83305700  0.66611400  0.91119100  1
  C  C21  1  0.51788400  0.48211600  0.15358200  1
  C  C22  1  0.33388600  0.16694300  0.91119100  1
  C  C23  1  0.66611400  0.83305700  0.41119100  1
  C  C24  1  0.48211600  0.51788400  0.65358200  1
  C  C25  1  0.48211600  0.96423200  0.65358200  1
  C  C26  1  0.33333300  0.66666700  0.90009400  1
  C  C27  1  0.16694300  0.33388600  0.41119100  1
  C  C28  1  0.03576800  0.51788400  0.65358200  1
  C  C29  1  0.16694300  0.83305700  0.41119100  1
