# generated using pymatgen
data_Cu3NiC12
_symmetry_space_group_name_H-M   'P 1'
_cell_length_a   5.05924560
_cell_length_b   5.14153689
_cell_length_c   11.71843613
_cell_angle_alpha   90.00000429
_cell_angle_beta   90.00000919
_cell_angle_gamma   70.83230158
_symmetry_Int_Tables_number   1
_chemical_formula_structural   Cu3NiC12
_chemical_formula_sum   'Cu6 Ni2 C24'
_cell_volume   287.92453418
_cell_formula_units_Z   2
loop_
 _symmetry_equiv_pos_site_id
 _symmetry_equiv_pos_as_xyz
  1  'x, y, z'
loop_
 _atom_site_type_symbol
 _atom_site_label
 _atom_site_symmetry_multiplicity
 _atom_site_fract_x
 _atom_site_fract_y
 _atom_site_fract_z
 _atom_site_occupancy
  C  C0  1  0.50000800  0.00000100  0.12499700  1
  C  C1  1  0.50000400  0.99999800  0.62499600  1
  C  C2  1  0.50000300  0.99999500  0.37499400  1
  C  C3  1  0.50000400  0.00000700  0.87499400  1
  C  C4  1  0.00000100  0.00000400  0.00130200  1
  C  C5  1  0.00000400  0.99999500  0.50130600  1
  C  C6  1  0.99999800  0.99999800  0.24868200  1
  C  C7  1  0.00000400  0.99999900  0.74868500  1
  Ni  Ni8  1  0.99997800  0.50000000  0.12499800  1
  Ni  Ni9  1  0.00000700  0.49999800  0.62500600  1
  Cu  Cu10  1  0.99994000  0.50000200  0.87501700  1
  Cu  Cu11  1  0.50005200  0.50002800  0.50114400  1
  Cu  Cu12  1  0.50003300  0.49999600  0.24886100  1
  Cu  Cu13  1  0.00007200  0.49994600  0.37500500  1
  Cu  Cu14  1  0.49985900  0.50004600  0.00116100  1
  Cu  Cu15  1  0.49999400  0.49996800  0.74884000  1
  C  C16  1  0.24582400  0.72007600  0.12501400  1
  C  C17  1  0.24583800  0.72005900  0.62499400  1
  C  C18  1  0.75415600  0.27995700  0.12500600  1
  C  C19  1  0.75417700  0.27993800  0.62499600  1
  C  C20  1  0.26006900  0.72840700  0.37499300  1
  C  C21  1  0.26007600  0.72842500  0.87498900  1
  C  C22  1  0.73992600  0.27158100  0.37499200  1
  C  C23  1  0.73992400  0.27161400  0.87499500  1
  C  C24  1  0.23431200  0.27887900  0.00477900  1
  C  C25  1  0.23431600  0.27887900  0.50477300  1
  C  C26  1  0.23431300  0.27887300  0.24523300  1
  C  C27  1  0.23431900  0.27887800  0.74523200  1
  C  C28  1  0.76570100  0.72111400  0.00477700  1
  C  C29  1  0.76569800  0.72111700  0.50477200  1
  C  C30  1  0.76569200  0.72111000  0.24523600  1
  C  C31  1  0.76570300  0.72111100  0.74523200  1
