# generated using pymatgen
data_Cu5Ni7C6
_symmetry_space_group_name_H-M   'P 1'
_cell_length_a   4.65149002
_cell_length_b   5.67529026
_cell_length_c   15.28970260
_cell_angle_alpha   91.15810523
_cell_angle_beta   90.83521139
_cell_angle_gamma   87.06035898
_symmetry_Int_Tables_number   1
_chemical_formula_structural   Cu5Ni7C6
_chemical_formula_sum   'Cu10 Ni14 C12'
_cell_volume   402.97554657
_cell_formula_units_Z   2
loop_
 _symmetry_equiv_pos_site_id
 _symmetry_equiv_pos_as_xyz
  1  'x, y, z'
loop_
 _atom_site_type_symbol
 _atom_site_label
 _atom_site_symmetry_multiplicity
 _atom_site_fract_x
 _atom_site_fract_y
 _atom_site_fract_z
 _atom_site_occupancy
  C  C0  1  0.00734400  0.16786800  0.42063900  1
  C  C1  1  0.03091100  0.85259400  0.24518500  1
  C  C2  1  0.00966800  0.15781600  0.08825000  1
  C  C3  1  0.01991200  0.16758800  0.74554200  1
  C  C4  1  0.02588000  0.84452300  0.58051600  1
  C  C5  1  0.00826000  0.86322100  0.91218900  1
  C  C6  1  0.47237500  0.34719600  0.58928400  1
  C  C7  1  0.47118900  0.32179000  0.92176500  1
  C  C8  1  0.51981100  0.34572800  0.25095000  1
  C  C9  1  0.49137800  0.63210900  0.08609500  1
  C  C10  1  0.47276200  0.63599900  0.41424900  1
  C  C11  1  0.47953900  0.63814600  0.75157700  1
  Ni  Ni12  1  0.21980700  0.11706000  0.63825800  1
  Ni  Ni13  1  0.20347700  0.10732800  0.97508300  1
  Ni  Ni14  1  0.24022900  0.88146900  0.13770100  1
  Ni  Ni15  1  0.22185100  0.88575000  0.47218800  1
  Ni  Ni16  1  0.23035400  0.89344700  0.80484800  1
  Ni  Ni17  1  0.28551300  0.38345100  0.14329400  1
  Ni  Ni18  1  0.27711600  0.61155700  0.30241000  1
  Ni  Ni19  1  0.26578200  0.38733200  0.47922600  1
  Ni  Ni20  1  0.27051300  0.61269600  0.64190900  1
  Ni  Ni21  1  0.27081500  0.38672000  0.81075700  1
  Ni  Ni22  1  0.71808400  0.37635600  0.02712000  1
  Ni  Ni23  1  0.72897700  0.39231600  0.36238500  1
  Ni  Ni24  1  0.71981100  0.38684200  0.69342800  1
  Ni  Ni25  1  0.79870300  0.11702600  0.19407900  1
  Cu  Cu26  1  0.25957400  0.10886700  0.31011000  1
  Cu  Cu27  1  0.24928500  0.60807300  0.97469200  1
  Cu  Cu28  1  0.75540100  0.62002700  0.19178800  1
  Cu  Cu29  1  0.72732400  0.61956600  0.52533600  1
  Cu  Cu30  1  0.73074100  0.63463800  0.86149500  1
  Cu  Cu31  1  0.74071900  0.11230100  0.53172600  1
  Cu  Cu32  1  0.78462500  0.89506200  0.35609100  1
  Cu  Cu33  1  0.75415500  0.87193800  0.02039300  1
  Cu  Cu34  1  0.76570100  0.13784100  0.84983800  1
  Cu  Cu35  1  0.77241600  0.87775900  0.68960500  1
