# generated using pymatgen
data_Cu2NiC14
_symmetry_space_group_name_H-M   'P 1'
_cell_length_a   5.04354000
_cell_length_b   6.39371700
_cell_length_c   12.93604912
_cell_angle_alpha   88.66827206
_cell_angle_beta   90.00000000
_cell_angle_gamma   90.00000000
_symmetry_Int_Tables_number   1
_chemical_formula_structural   Cu2NiC14
_chemical_formula_sum   'Cu4 Ni2 C28'
_cell_volume   417.03567998
_cell_formula_units_Z   2
loop_
 _symmetry_equiv_pos_site_id
 _symmetry_equiv_pos_as_xyz
  1  'x, y, z'
loop_
 _atom_site_type_symbol
 _atom_site_label
 _atom_site_symmetry_multiplicity
 _atom_site_fract_x
 _atom_site_fract_y
 _atom_site_fract_z
 _atom_site_occupancy
  Ni  Ni0  1  0.79079300  0.00000000  0.75000000  1
  Ni  Ni1  1  0.20920700  0.00000000  0.25000000  1
  Cu  Cu2  1  0.82608000  0.50316600  0.86655700  1
  Cu  Cu3  1  0.82608000  0.49683400  0.63344300  1
  Cu  Cu4  1  0.17392000  0.50316600  0.36655700  1
  Cu  Cu5  1  0.17392000  0.49683400  0.13344300  1
  C  C6  1  0.31594300  0.76486800  0.56550800  1
  C  C7  1  0.68405700  0.76486800  0.06550800  1
  C  C8  1  0.31594300  0.23513200  0.93449200  1
  C  C9  1  0.68405700  0.23513200  0.43449200  1
  C  C10  1  0.18256300  0.80655700  0.95836500  1
  C  C11  1  0.81743700  0.80655700  0.45836500  1
  C  C12  1  0.33299300  0.50000000  0.75000000  1
  C  C13  1  0.66700700  0.50000000  0.25000000  1
  C  C14  1  0.18256300  0.19344300  0.54163500  1
  C  C15  1  0.81743700  0.19344300  0.04163500  1
  C  C16  1  0.29720700  0.95655900  0.89391200  1
  C  C17  1  0.70279300  0.95655900  0.39391200  1
  C  C18  1  0.91567900  0.75577400  0.94903700  1
  C  C19  1  0.08432100  0.75577400  0.44903700  1
  C  C20  1  0.66953400  0.70439500  0.53407400  1
  C  C21  1  0.33046600  0.70439500  0.03407400  1
  C  C22  1  0.17888300  0.59787100  0.67160700  1
  C  C23  1  0.82111700  0.59787100  0.17160700  1
  C  C24  1  0.59886000  0.50000000  0.75000000  1
  C  C25  1  0.40114000  0.50000000  0.25000000  1
  C  C26  1  0.17888300  0.40212900  0.82839300  1
  C  C27  1  0.82111700  0.40212900  0.32839300  1
  C  C28  1  0.66953400  0.29560500  0.96592600  1
  C  C29  1  0.33046600  0.29560500  0.46592600  1
  C  C30  1  0.91567900  0.24422600  0.55096300  1
  C  C31  1  0.08432100  0.24422600  0.05096300  1
  C  C32  1  0.29720700  0.04344100  0.60608800  1
  C  C33  1  0.70279300  0.04344100  0.10608800  1
