# generated using pymatgen
data_CuNiC10
_symmetry_space_group_name_H-M   'P 1'
_cell_length_a   6.32314000
_cell_length_b   8.25563200
_cell_length_c   8.26418694
_cell_angle_alpha   60.13264747
_cell_angle_beta   90.00000000
_cell_angle_gamma   90.00000000
_symmetry_Int_Tables_number   1
_chemical_formula_structural   CuNiC10
_chemical_formula_sum   'Cu3 Ni3 C30'
_cell_volume   374.10441570
_cell_formula_units_Z   3
loop_
 _symmetry_equiv_pos_site_id
 _symmetry_equiv_pos_as_xyz
  1  'x, y, z'
loop_
 _atom_site_type_symbol
 _atom_site_label
 _atom_site_symmetry_multiplicity
 _atom_site_fract_x
 _atom_site_fract_y
 _atom_site_fract_z
 _atom_site_occupancy
  C  C0  1  0.74944300  0.71683200  0.30164400  1
  C  C1  1  0.25055700  0.71683200  0.30164400  1
  C  C2  1  0.74956900  0.98316200  0.71545100  1
  C  C3  1  0.25043100  0.98316200  0.71545100  1
  C  C4  1  0.24964800  0.30126300  0.98405600  1
  C  C5  1  0.75035200  0.30126300  0.98405600  1
  Ni  Ni6  1  0.00000000  0.62815400  0.01183800  1
  Ni  Ni7  1  0.50000000  0.62676700  0.01202400  1
  Ni  Ni8  1  0.00000000  0.35936500  0.62826100  1
  Cu  Cu9  1  0.50000000  0.35920700  0.63376700  1
  Cu  Cu10  1  0.00000000  0.00797500  0.35903300  1
  Cu  Cu11  1  0.50000000  0.00813300  0.35961500  1
  C  C12  1  0.00000000  0.00179300  0.00082100  1
  C  C13  1  0.50000000  0.00175800  0.99830200  1
  C  C14  1  0.74815800  0.66789700  0.66406100  1
  C  C15  1  0.25184200  0.66789700  0.66406100  1
  C  C16  1  0.74850900  0.33061900  0.33549700  1
  C  C17  1  0.25149100  0.33061900  0.33549700  1
  C  C18  1  0.50000000  0.89270900  0.19195900  1
  C  C19  1  0.00000000  0.88878200  0.19482800  1
  C  C20  1  0.74984000  0.86188200  0.55626400  1
  C  C21  1  0.25016000  0.86188200  0.55626400  1
  C  C22  1  0.00000000  0.92091600  0.88779400  1
  C  C23  1  0.50000000  0.91900400  0.88766600  1
  C  C24  1  0.74596100  0.55963600  0.57872100  1
  C  C25  1  0.25403900  0.55963600  0.57872100  1
  C  C26  1  0.75010600  0.58207800  0.85747500  1
  C  C27  1  0.24989400  0.58207800  0.85747500  1
  C  C28  1  0.74954300  0.52494000  0.22275500  1
  C  C29  1  0.25045700  0.52494000  0.22275500  1
  C  C30  1  0.00000000  0.19487100  0.92143200  1
  C  C31  1  0.50000000  0.19641500  0.91496400  1
  C  C32  1  0.74979100  0.21763200  0.25455300  1
  C  C33  1  0.25020900  0.21763200  0.25455300  1
  C  C34  1  0.25305700  0.25113600  0.52836900  1
  C  C35  1  0.74694300  0.25113600  0.52836900  1
