# generated using pymatgen
data_Cu24Ni12C5
_symmetry_space_group_name_H-M   'P 1'
_cell_length_a   10.91483500
_cell_length_b   10.91483500
_cell_length_c   10.91483500
_cell_angle_alpha   90.00000000
_cell_angle_beta   90.00000000
_cell_angle_gamma   90.00000000
_symmetry_Int_Tables_number   1
_chemical_formula_structural   Cu24Ni12C5
_chemical_formula_sum   'Cu48 Ni24 C10'
_cell_volume   1300.32383884
_cell_formula_units_Z   2
loop_
 _symmetry_equiv_pos_site_id
 _symmetry_equiv_pos_as_xyz
  1  'x, y, z'
loop_
 _atom_site_type_symbol
 _atom_site_label
 _atom_site_symmetry_multiplicity
 _atom_site_fract_x
 _atom_site_fract_y
 _atom_site_fract_z
 _atom_site_occupancy
  C  C0  1  0.50000000  0.00000000  0.50000000  1
  C  C1  1  0.50000000  0.50000000  0.00000000  1
  C  C2  1  0.00000000  0.50000000  0.50000000  1
  C  C3  1  0.00000000  0.50000000  0.00000000  1
  C  C4  1  0.00000000  0.00000000  0.50000000  1
  C  C5  1  0.50000000  0.00000000  0.00000000  1
  C  C6  1  0.75000000  0.75000000  0.25000000  1
  C  C7  1  0.75000000  0.25000000  0.75000000  1
  C  C8  1  0.25000000  0.75000000  0.75000000  1
  C  C9  1  0.25000000  0.25000000  0.25000000  1
  Ni  Ni10  1  0.75321700  0.56637400  0.24678300  1
  Ni  Ni11  1  0.75321700  0.75321700  0.43362600  1
  Ni  Ni12  1  0.56637400  0.75321700  0.24678300  1
  Ni  Ni13  1  0.75321700  0.43362600  0.75321700  1
  Ni  Ni14  1  0.75321700  0.24678300  0.56637400  1
  Ni  Ni15  1  0.56637400  0.24678300  0.75321700  1
  Ni  Ni16  1  0.24678300  0.56637400  0.75321700  1
  Ni  Ni17  1  0.24678300  0.75321700  0.56637400  1
  Ni  Ni18  1  0.43362600  0.75321700  0.75321700  1
  Ni  Ni19  1  0.24678300  0.43362600  0.24678300  1
  Ni  Ni20  1  0.24678300  0.24678300  0.43362600  1
  Ni  Ni21  1  0.43362600  0.24678300  0.24678300  1
  Ni  Ni22  1  0.74678300  0.93362600  0.25321700  1
  Ni  Ni23  1  0.74678300  0.74678300  0.06637400  1
  Ni  Ni24  1  0.93362600  0.74678300  0.25321700  1
  Ni  Ni25  1  0.74678300  0.06637400  0.74678300  1
  Ni  Ni26  1  0.74678300  0.25321700  0.93362600  1
  Ni  Ni27  1  0.93362600  0.25321700  0.74678300  1
  Ni  Ni28  1  0.25321700  0.93362600  0.74678300  1
  Ni  Ni29  1  0.25321700  0.74678300  0.93362600  1
  Ni  Ni30  1  0.06637400  0.74678300  0.74678300  1
  Ni  Ni31  1  0.25321700  0.06637400  0.25321700  1
  Ni  Ni32  1  0.25321700  0.25321700  0.06637400  1
  Ni  Ni33  1  0.06637400  0.25321700  0.25321700  1
  Cu  Cu34  1  0.82653800  0.50831400  0.31210300  1
  Cu  Cu35  1  0.68789700  0.50831400  0.17346200  1
  Cu  Cu36  1  0.68789700  0.82653800  0.49168600  1
  Cu  Cu37  1  0.82653800  0.68789700  0.49168600  1
  Cu  Cu38  1  0.50831400  0.68789700  0.17346200  1
  Cu  Cu39  1  0.50831400  0.82653800  0.31210300  1
  Cu  Cu40  1  0.82653800  0.49168600  0.68789700  1
  Cu  Cu41  1  0.68789700  0.49168600  0.82653800  1
  Cu  Cu42  1  0.68789700  0.17346200  0.50831400  1
  Cu  Cu43  1  0.82653800  0.31210300  0.50831400  1
  Cu  Cu44  1  0.50831400  0.31210300  0.82653800  1
  Cu  Cu45  1  0.50831400  0.17346200  0.68789700  1
  Cu  Cu46  1  0.17346200  0.50831400  0.68789700  1
  Cu  Cu47  1  0.31210300  0.50831400  0.82653800  1
  Cu  Cu48  1  0.31210300  0.82653800  0.50831400  1
  Cu  Cu49  1  0.17346200  0.68789700  0.50831400  1
  Cu  Cu50  1  0.49168600  0.68789700  0.82653800  1
  Cu  Cu51  1  0.49168600  0.82653800  0.68789700  1
  Cu  Cu52  1  0.17346200  0.49168600  0.31210300  1
  Cu  Cu53  1  0.31210300  0.49168600  0.17346200  1
  Cu  Cu54  1  0.31210300  0.17346200  0.49168600  1
  Cu  Cu55  1  0.17346200  0.31210300  0.49168600  1
  Cu  Cu56  1  0.49168600  0.31210300  0.17346200  1
  Cu  Cu57  1  0.49168600  0.17346200  0.31210300  1
  Cu  Cu58  1  0.67346200  0.99168600  0.18789700  1
  Cu  Cu59  1  0.81210300  0.99168600  0.32653800  1
  Cu  Cu60  1  0.81210300  0.67346200  0.00831400  1
  Cu  Cu61  1  0.67346200  0.81210300  0.00831400  1
  Cu  Cu62  1  0.99168600  0.81210300  0.32653800  1
  Cu  Cu63  1  0.99168600  0.67346200  0.18789700  1
  Cu  Cu64  1  0.67346200  0.00831400  0.81210300  1
  Cu  Cu65  1  0.81210300  0.00831400  0.67346200  1
  Cu  Cu66  1  0.81210300  0.32653800  0.99168600  1
  Cu  Cu67  1  0.67346200  0.18789700  0.99168600  1
  Cu  Cu68  1  0.99168600  0.18789700  0.67346200  1
  Cu  Cu69  1  0.99168600  0.32653800  0.81210300  1
  Cu  Cu70  1  0.32653800  0.99168600  0.81210300  1
  Cu  Cu71  1  0.18789700  0.99168600  0.67346200  1
  Cu  Cu72  1  0.18789700  0.67346200  0.99168600  1
  Cu  Cu73  1  0.32653800  0.81210300  0.99168600  1
  Cu  Cu74  1  0.00831400  0.81210300  0.67346200  1
  Cu  Cu75  1  0.00831400  0.67346200  0.81210300  1
  Cu  Cu76  1  0.32653800  0.00831400  0.18789700  1
  Cu  Cu77  1  0.18789700  0.00831400  0.32653800  1
  Cu  Cu78  1  0.18789700  0.32653800  0.00831400  1
  Cu  Cu79  1  0.32653800  0.18789700  0.00831400  1
  Cu  Cu80  1  0.00831400  0.18789700  0.32653800  1
  Cu  Cu81  1  0.00831400  0.32653800  0.18789700  1
