# generated using pymatgen
data_Cu12Ni3C
_symmetry_space_group_name_H-M   'P 1'
_cell_length_a   9.26829842
_cell_length_b   9.26829842
_cell_length_c   5.71198700
_cell_angle_alpha   90.00000000
_cell_angle_beta   90.00000000
_cell_angle_gamma   120.00000298
_symmetry_Int_Tables_number   1
_chemical_formula_structural   Cu12Ni3C
_chemical_formula_sum   'Cu24 Ni6 C2'
_cell_volume   424.93044316
_cell_formula_units_Z   2
loop_
 _symmetry_equiv_pos_site_id
 _symmetry_equiv_pos_as_xyz
  1  'x, y, z'
loop_
 _atom_site_type_symbol
 _atom_site_label
 _atom_site_symmetry_multiplicity
 _atom_site_fract_x
 _atom_site_fract_y
 _atom_site_fract_z
 _atom_site_occupancy
  C  C0  1  0.33333300  0.66666700  0.75000000  1
  C  C1  1  0.66666700  0.33333300  0.25000000  1
  Ni  Ni2  1  0.09091500  0.70763500  0.25000000  1
  Ni  Ni3  1  0.29236500  0.38328100  0.25000000  1
  Ni  Ni4  1  0.61671900  0.90908500  0.25000000  1
  Ni  Ni5  1  0.38328100  0.09091500  0.75000000  1
  Ni  Ni6  1  0.70763500  0.61671900  0.75000000  1
  Ni  Ni7  1  0.90908500  0.29236500  0.75000000  1
  Cu  Cu8  1  0.01994800  0.81236800  0.25000000  1
  Cu  Cu9  1  0.03483700  0.47026200  0.75000000  1
  Cu  Cu10  1  0.19766800  0.74156700  0.04309100  1
  Cu  Cu11  1  0.19766800  0.74156700  0.45690900  1
  Cu  Cu12  1  0.43542400  0.96516300  0.75000000  1
  Cu  Cu13  1  0.25843300  0.45610100  0.45690900  1
  Cu  Cu14  1  0.25843300  0.45610100  0.04309100  1
  Cu  Cu15  1  0.18763200  0.20758000  0.25000000  1
  Cu  Cu16  1  0.54389900  0.80233200  0.04309100  1
  Cu  Cu17  1  0.54389900  0.80233200  0.45690900  1
  Cu  Cu18  1  0.20758000  0.01994800  0.75000000  1
  Cu  Cu19  1  0.47026200  0.43542400  0.25000000  1
  Cu  Cu20  1  0.52973800  0.56457600  0.75000000  1
  Cu  Cu21  1  0.79242000  0.98005200  0.25000000  1
  Cu  Cu22  1  0.45610100  0.19766800  0.54309100  1
  Cu  Cu23  1  0.45610100  0.19766800  0.95690900  1
  Cu  Cu24  1  0.81236800  0.79242000  0.75000000  1
  Cu  Cu25  1  0.74156700  0.54389900  0.95690900  1
  Cu  Cu26  1  0.74156700  0.54389900  0.54309100  1
  Cu  Cu27  1  0.56457600  0.03483700  0.25000000  1
  Cu  Cu28  1  0.80233200  0.25843300  0.95690900  1
  Cu  Cu29  1  0.80233200  0.25843300  0.54309100  1
  Cu  Cu30  1  0.96516300  0.52973800  0.25000000  1
  Cu  Cu31  1  0.98005200  0.18763200  0.75000000  1
