# generated using pymatgen
data_Cu8Ni3C32
_symmetry_space_group_name_H-M   'P 1'
_cell_length_a   9.75664941
_cell_length_b   9.75664941
_cell_length_c   14.49297511
_cell_angle_alpha   89.34373927
_cell_angle_beta   89.34373927
_cell_angle_gamma   60.66179367
_symmetry_Int_Tables_number   1
_chemical_formula_structural   Cu8Ni3C32
_chemical_formula_sum   'Cu16 Ni6 C64'
_cell_volume   1202.56634648
_cell_formula_units_Z   2
loop_
 _symmetry_equiv_pos_site_id
 _symmetry_equiv_pos_as_xyz
  1  'x, y, z'
loop_
 _atom_site_type_symbol
 _atom_site_label
 _atom_site_symmetry_multiplicity
 _atom_site_fract_x
 _atom_site_fract_y
 _atom_site_fract_z
 _atom_site_occupancy
  C  C0  1  0.00000000  0.00000000  0.00000000  1
  C  C1  1  0.00000000  0.00000000  0.50000000  1
  C  C2  1  0.89758100  0.33391300  0.45055600  1
  C  C3  1  0.33391300  0.89758100  0.95055600  1
  C  C4  1  0.66608700  0.10241900  0.04944400  1
  C  C5  1  0.10241900  0.66608700  0.54944400  1
  Ni  Ni6  1  0.99750900  0.56430600  0.75835200  1
  Ni  Ni7  1  0.00249100  0.43569400  0.24164800  1
  Ni  Ni8  1  0.56430600  0.99750900  0.25835200  1
  Ni  Ni9  1  0.43569400  0.00249100  0.74164800  1
  Ni  Ni10  1  0.55897000  0.44103000  0.75000000  1
  Ni  Ni11  1  0.44103000  0.55897000  0.25000000  1
  Cu  Cu12  1  0.91811600  0.78823100  0.15985200  1
  Cu  Cu13  1  0.78823100  0.91811600  0.65985200  1
  Cu  Cu14  1  0.91330300  0.31073000  0.65758300  1
  Cu  Cu15  1  0.67233800  0.65875400  0.36783200  1
  Cu  Cu16  1  0.65875400  0.67233800  0.86783200  1
  Cu  Cu17  1  0.78046800  0.29973400  0.15575800  1
  Cu  Cu18  1  0.70026600  0.21953200  0.34424200  1
  Cu  Cu19  1  0.31073000  0.91330300  0.15758300  1
  Cu  Cu20  1  0.68927000  0.08669700  0.84241700  1
  Cu  Cu21  1  0.29973400  0.78046800  0.65575800  1
  Cu  Cu22  1  0.21953200  0.70026600  0.84424200  1
  Cu  Cu23  1  0.32766200  0.34124600  0.63216800  1
  Cu  Cu24  1  0.34124600  0.32766200  0.13216800  1
  Cu  Cu25  1  0.08669700  0.68927000  0.34241700  1
  Cu  Cu26  1  0.21176900  0.08188400  0.34014800  1
  Cu  Cu27  1  0.08188400  0.21176900  0.84014800  1
  C  C28  1  0.98975500  0.80026400  0.25756900  1
  C  C29  1  0.01591900  0.76802600  0.43120800  1
  C  C30  1  0.92149100  0.74093500  0.66555500  1
  C  C31  1  0.80026400  0.98975500  0.75756900  1
  C  C32  1  0.76802600  0.01591900  0.93120800  1
  C  C33  1  0.74093500  0.92149100  0.16555500  1
  C  C34  1  0.92110300  0.62537000  0.15959100  1
  C  C35  1  0.80143000  0.68954900  0.82899900  1
  C  C36  1  0.91054700  0.47105200  0.67017100  1
  C  C37  1  0.00488400  0.17891000  0.91840300  1
  C  C38  1  0.01024500  0.19973600  0.74243100  1
  C  C39  1  0.91799900  0.33769400  0.15574100  1
  C  C40  1  0.68954900  0.80143000  0.32899900  1
  C  C41  1  0.62537000  0.92110300  0.65959100  1
  C  C42  1  0.81200500  0.50559200  0.32131700  1
  C  C43  1  0.68096800  0.64002100  0.46908600  1
  C  C44  1  0.64002100  0.68096800  0.96908600  1
  C  C45  1  0.67881500  0.51899800  0.82081800  1
  C  C46  1  0.47105200  0.91054700  0.17017100  1
  C  C47  1  0.50559200  0.81200500  0.82131700  1
  C  C48  1  0.74197100  0.34072300  0.66578500  1
  C  C49  1  0.79587300  0.20412700  0.25000000  1
  C  C50  1  0.80184600  0.20594000  0.42322700  1
  C  C51  1  0.79406000  0.19815400  0.07677300  1
  C  C52  1  0.62186000  0.45791200  0.16138500  1
  C  C53  1  0.51899800  0.67881500  0.32081800  1
  C  C54  1  0.65927700  0.25802900  0.83421500  1
  C  C55  1  0.45791200  0.62186000  0.66138500  1
  C  C56  1  0.33769400  0.91799900  0.65574100  1
  C  C57  1  0.82109000  0.99511600  0.58159700  1
  C  C58  1  0.17891000  0.00488400  0.41840300  1
  C  C59  1  0.19973600  0.01024500  0.24243100  1
  C  C60  1  0.66230600  0.08200100  0.34425900  1
  C  C61  1  0.54208800  0.37814000  0.33861500  1
  C  C62  1  0.34072300  0.74197100  0.16578500  1
  C  C63  1  0.48100200  0.32118500  0.67918200  1
  C  C64  1  0.37814000  0.54208800  0.83861500  1
  C  C65  1  0.20594000  0.80184600  0.92322700  1
  C  C66  1  0.19815400  0.79406000  0.57677300  1
  C  C67  1  0.20412700  0.79587300  0.75000000  1
  C  C68  1  0.25802900  0.65927700  0.33421500  1
  C  C69  1  0.49440800  0.18799500  0.17868300  1
  C  C70  1  0.52894800  0.08945300  0.82982900  1
  C  C71  1  0.32118500  0.48100200  0.17918200  1
  C  C72  1  0.31903200  0.35997900  0.53091400  1
  C  C73  1  0.35997900  0.31903200  0.03091400  1
  C  C74  1  0.18799500  0.49440800  0.67868300  1
  C  C75  1  0.37463000  0.07889700  0.34040900  1
  C  C76  1  0.31045100  0.19857000  0.67100100  1
  C  C77  1  0.08200100  0.66230600  0.84425900  1
  C  C78  1  0.99511600  0.82109000  0.08159700  1
  C  C79  1  0.08945300  0.52894800  0.32982900  1
  C  C80  1  0.19857000  0.31045100  0.17100100  1
  C  C81  1  0.07889700  0.37463000  0.84040900  1
  C  C82  1  0.25906500  0.07850900  0.83444500  1
  C  C83  1  0.23197400  0.98408100  0.06879200  1
  C  C84  1  0.07850900  0.25906500  0.33444500  1
  C  C85  1  0.98408100  0.23197400  0.56879200  1
