# generated using pymatgen
data_Cu4NiC11
_symmetry_space_group_name_H-M   'P 1'
_cell_length_a   9.25156200
_cell_length_b   9.31048109
_cell_length_c   10.73582022
_cell_angle_alpha   109.12967270
_cell_angle_beta   108.30502227
_cell_angle_gamma   90.72291794
_symmetry_Int_Tables_number   1
_chemical_formula_structural   Cu4NiC11
_chemical_formula_sum   'Cu16 Ni4 C44'
_cell_volume   822.56033915
_cell_formula_units_Z   4
loop_
 _symmetry_equiv_pos_site_id
 _symmetry_equiv_pos_as_xyz
  1  'x, y, z'
loop_
 _atom_site_type_symbol
 _atom_site_label
 _atom_site_symmetry_multiplicity
 _atom_site_fract_x
 _atom_site_fract_y
 _atom_site_fract_z
 _atom_site_occupancy
  Ni  Ni0  1  0.74555700  0.71902500  0.97890600  1
  Ni  Ni1  1  0.22772600  0.77133400  0.50244100  1
  Ni  Ni2  1  0.77227400  0.22866600  0.49755900  1
  Ni  Ni3  1  0.25444300  0.28097500  0.02109400  1
  Cu  Cu4  1  0.90461800  0.59688700  0.24117100  1
  Cu  Cu5  1  0.76144000  0.92408700  0.61188700  1
  Cu  Cu6  1  0.43286700  0.74839100  0.07306900  1
  Cu  Cu7  1  0.90473200  0.27166200  0.08968500  1
  Cu  Cu8  1  0.73742800  0.58463500  0.44329300  1
  Cu  Cu9  1  0.55689500  0.91158500  0.77337800  1
  Cu  Cu10  1  0.41277900  0.60900300  0.28628500  1
  Cu  Cu11  1  0.90965600  0.04989600  0.24647300  1
  Cu  Cu12  1  0.09034400  0.95010400  0.75352700  1
  Cu  Cu13  1  0.58722100  0.39099700  0.71371500  1
  Cu  Cu14  1  0.44310500  0.08841500  0.22662200  1
  Cu  Cu15  1  0.26257200  0.41536500  0.55670700  1
  Cu  Cu16  1  0.09526800  0.72833800  0.91031500  1
  Cu  Cu17  1  0.56713300  0.25160900  0.92693100  1
  Cu  Cu18  1  0.23856000  0.07591300  0.38811300  1
  Cu  Cu19  1  0.09538200  0.40311300  0.75882900  1
  C  C20  1  0.81091200  0.89992100  0.17763600  1
  C  C21  1  0.75702800  0.98498700  0.50055900  1
  C  C22  1  0.91217000  0.97540200  0.74641600  1
  C  C23  1  0.48383400  0.92620900  0.13661300  1
  C  C24  1  0.79682100  0.58988600  0.10284300  1
  C  C25  1  0.81430700  0.64041900  0.35388600  1
  C  C26  1  0.92185800  0.41559400  0.22489100  1
  C  C27  1  0.62971100  0.97231800  0.67530700  1
  C  C28  1  0.74035600  0.74030700  0.56612000  1
  C  C29  1  0.48497000  0.68926100  0.19946600  1
  C  C30  1  0.96884500  0.74142300  0.96625400  1
  C  C31  1  0.24995300  0.72914000  0.03126500  1
  C  C32  1  0.80626900  0.46730200  0.49847500  1
  C  C33  1  0.86282100  0.13318800  0.12941000  1
  C  C34  1  0.68298100  0.86069900  0.86852400  1
  C  C35  1  0.56301400  0.53259000  0.35145500  1
  C  C36  1  0.38826300  0.73580800  0.40250800  1
  C  C37  1  0.50443800  0.32368000  0.03971700  1
  C  C38  1  0.91941300  0.16108700  0.38634700  1
  C  C39  1  0.94368600  0.30673100  0.69048500  1
  C  C40  1  0.40788200  0.81370100  0.68718300  1
  C  C41  1  0.29104000  0.48018200  0.19094700  1
  C  C42  1  0.70896000  0.51981800  0.80905300  1
  C  C43  1  0.59211800  0.18629900  0.31281700  1
  C  C44  1  0.05631400  0.69326900  0.30951500  1
  C  C45  1  0.08058700  0.83891300  0.61365300  1
  C  C46  1  0.49556200  0.67632000  0.96028300  1
  C  C47  1  0.61173700  0.26419200  0.59749200  1
  C  C48  1  0.43698600  0.46741000  0.64854500  1
  C  C49  1  0.31701900  0.13930100  0.13147600  1
  C  C50  1  0.13717900  0.86681200  0.87059000  1
  C  C51  1  0.19373100  0.53269800  0.50152500  1
  C  C52  1  0.75004700  0.27086000  0.96873500  1
  C  C53  1  0.03115500  0.25857700  0.03374600  1
  C  C54  1  0.51503000  0.31073900  0.80053400  1
  C  C55  1  0.25964400  0.25969300  0.43388000  1
  C  C56  1  0.37028900  0.02768200  0.32469300  1
  C  C57  1  0.07814200  0.58440600  0.77510900  1
  C  C58  1  0.18569300  0.35958100  0.64611400  1
  C  C59  1  0.20317900  0.41011400  0.89715700  1
  C  C60  1  0.51616600  0.07379100  0.86338700  1
  C  C61  1  0.08783000  0.02459800  0.25358400  1
  C  C62  1  0.24297200  0.01501300  0.49944100  1
  C  C63  1  0.18908800  0.10007900  0.82236400  1
