# generated using pymatgen
data_Cu6Ni10C39
_symmetry_space_group_name_H-M   'P 1'
_cell_length_a   5.87735100
_cell_length_b   5.90732168
_cell_length_c   19.51645689
_cell_angle_alpha   81.74164967
_cell_angle_beta   81.43987089
_cell_angle_gamma   60.33122341
_symmetry_Int_Tables_number   1
_chemical_formula_structural   Cu6Ni10C39
_chemical_formula_sum   'Cu6 Ni10 C39'
_cell_volume   580.27549371
_cell_formula_units_Z   1
loop_
 _symmetry_equiv_pos_site_id
 _symmetry_equiv_pos_as_xyz
  1  'x, y, z'
loop_
 _atom_site_type_symbol
 _atom_site_label
 _atom_site_symmetry_multiplicity
 _atom_site_fract_x
 _atom_site_fract_y
 _atom_site_fract_z
 _atom_site_occupancy
  C  C0  1  0.90335500  0.41323800  0.78120700  1
  C  C1  1  0.58980800  0.08955300  0.71969700  1
  C  C2  1  0.34700700  0.83617000  0.47035000  1
  C  C3  1  0.65990500  0.16017300  0.53080600  1
  C  C4  1  0.40016400  0.91421800  0.28150500  1
  C  C5  1  0.09879600  0.58550200  0.21741800  1
  C  C6  1  0.15231100  0.66530300  0.02974900  1
  Ni  Ni7  1  0.12472900  0.62491200  0.62532100  1
  Ni  Ni8  1  0.37519900  0.87682800  0.87554800  1
  Ni  Ni9  1  0.50079400  0.00045200  0.99861500  1
  Ni  Ni10  1  0.24746300  0.75187500  0.75001800  1
  Ni  Ni11  1  0.87241800  0.87674700  0.87579800  1
  Ni  Ni12  1  0.00308200  0.49752000  0.50073600  1
  Ni  Ni13  1  0.37689200  0.37335700  0.37525000  1
  Ni  Ni14  1  0.12300800  0.12658300  0.12395700  1
  Ni  Ni15  1  0.87488200  0.37295100  0.37544700  1
  Ni  Ni16  1  0.62663600  0.12649800  0.12389200  1
  Cu  Cu17  1  0.37491700  0.37443900  0.87553000  1
  Cu  Cu18  1  0.62492600  0.62484900  0.62531600  1
  Cu  Cu19  1  0.12483900  0.12491600  0.62537600  1
  Cu  Cu20  1  0.87499500  0.87415500  0.37582300  1
  Cu  Cu21  1  0.74940000  0.25017300  0.24987500  1
  Cu  Cu22  1  0.62652400  0.62356300  0.12348800  1
  C  C23  1  0.23214900  0.15909900  0.93445800  1
  C  C24  1  0.67448900  0.15989900  0.93451700  1
  C  C25  1  0.18745700  0.69974700  0.92707300  1
  C  C26  1  0.07276900  0.58815600  0.81553300  1
  C  C27  1  0.52194900  0.58792000  0.81477500  1
  C  C28  1  0.07740800  0.02777000  0.81647000  1
  C  C29  1  0.66805800  0.72888800  0.93351100  1
  C  C30  1  0.41291200  0.47369900  0.68555800  1
  C  C31  1  0.17774400  0.66131100  0.43540700  1
  C  C32  1  0.41687500  0.91840400  0.68756200  1
  C  C33  1  0.56260000  0.05161900  0.82249600  1
  C  C34  1  0.30412800  0.80370300  0.57271700  1
  C  C35  1  0.94541700  0.44621300  0.67807800  1
  C  C36  1  0.83668000  0.77622800  0.56501600  1
  C  C37  1  0.02649200  0.08478700  0.31760100  1
  C  C38  1  0.27825000  0.33507500  0.56547800  1
  C  C39  1  0.97150900  0.91485900  0.68523100  1
  C  C40  1  0.72844200  0.66080700  0.43637100  1
  C  C41  1  0.17330700  0.22225200  0.43507600  1
  C  C42  1  0.06290600  0.55088200  0.32290000  1
  C  C43  1  0.56971300  0.08433000  0.31774200  1
  C  C44  1  0.68693000  0.19741000  0.42838300  1
  C  C45  1  0.43739100  0.94889200  0.17637500  1
  C  C46  1  0.83318900  0.33138800  0.56309800  1
  C  C47  1  0.33021200  0.27582500  0.06469200  1
  C  C48  1  0.57525400  0.53070700  0.31760400  1
  C  C49  1  0.47278400  0.41437200  0.18207200  1
  C  C50  1  0.92375000  0.97009200  0.18157900  1
  C  C51  1  0.81461900  0.29777300  0.07320500  1
  C  C52  1  0.93006300  0.41448700  0.18230300  1
  C  C53  1  0.32517800  0.83781300  0.06379700  1
  C  C54  1  0.77357700  0.83787000  0.06385200  1
