# generated using pymatgen
data_Cu13(Ni5C2)2
_symmetry_space_group_name_H-M   'P 1'
_cell_length_a   7.11785700
_cell_length_b   7.81455470
_cell_length_c   11.10562244
_cell_angle_alpha   107.07655215
_cell_angle_beta   92.38193647
_cell_angle_gamma   95.76212887
_symmetry_Int_Tables_number   1
_chemical_formula_structural   Cu13(Ni5C2)2
_chemical_formula_sum   'Cu26 Ni20 C8'
_cell_volume   585.86827141
_cell_formula_units_Z   2
loop_
 _symmetry_equiv_pos_site_id
 _symmetry_equiv_pos_as_xyz
  1  'x, y, z'
loop_
 _atom_site_type_symbol
 _atom_site_label
 _atom_site_symmetry_multiplicity
 _atom_site_fract_x
 _atom_site_fract_y
 _atom_site_fract_z
 _atom_site_occupancy
  C  C0  1  0.68897300  0.74881700  0.93226600  1
  C  C1  1  0.31102700  0.25118300  0.06773400  1
  C  C2  1  0.70910900  0.05727900  0.37655400  1
  C  C3  1  0.29089100  0.94272100  0.62344600  1
  Ni  Ni4  1  0.26586800  0.97679500  0.33829100  1
  Ni  Ni5  1  0.73413200  0.02320500  0.66170900  1
  Ni  Ni6  1  0.08561700  0.96342700  0.22926700  1
  Ni  Ni7  1  0.91438300  0.03657300  0.77073300  1
  Ni  Ni8  1  0.08265300  0.81501300  0.32927200  1
  Ni  Ni9  1  0.91734700  0.18498700  0.67072800  1
  Ni  Ni10  1  0.31890700  0.76041100  0.28467200  1
  Ni  Ni11  1  0.68109300  0.23958900  0.71532800  1
  Ni  Ni12  1  0.32088100  0.90808100  0.18492600  1
  Ni  Ni13  1  0.67911900  0.09191900  0.81507400  1
  Ni  Ni14  1  0.94751000  0.74405300  0.17782700  1
  Ni  Ni15  1  0.05249000  0.25594700  0.82217300  1
  Ni  Ni16  1  0.11185900  0.60133000  0.21671400  1
  Ni  Ni17  1  0.88814100  0.39867000  0.78328600  1
  Ni  Ni18  1  0.27957100  0.66809500  0.11462400  1
  Ni  Ni19  1  0.72042900  0.33190500  0.88537600  1
  Ni  Ni20  1  0.11591400  0.81011000  0.07583400  1
  Ni  Ni21  1  0.88408600  0.18989000  0.92416600  1
  Ni  Ni22  1  0.04738200  0.58694700  0.06212300  1
  Ni  Ni23  1  0.95261800  0.41305300  0.93787700  1
  Cu  Cu24  1  0.33324100  0.10331500  0.42507700  1
  Cu  Cu25  1  0.66675900  0.89668500  0.57492300  1
  Cu  Cu26  1  0.00735100  0.09507200  0.23473700  1
  Cu  Cu27  1  0.99264900  0.90492800  0.76526300  1
  Cu  Cu28  1  0.99835500  0.81375200  0.42099900  1
  Cu  Cu29  1  0.00164500  0.18624800  0.57900100  1
  Cu  Cu30  1  0.44546400  0.71098500  0.33678600  1
  Cu  Cu31  1  0.55453600  0.28901500  0.66321400  1
  Cu  Cu32  1  0.45099000  0.98923500  0.15068300  1
  Cu  Cu33  1  0.54901000  0.01076500  0.84931700  1
  Cu  Cu34  1  0.77696800  0.73788400  0.17823800  1
  Cu  Cu35  1  0.22303200  0.26211600  0.82176200  1
  Cu  Cu36  1  0.08741400  0.46642200  0.25014000  1
  Cu  Cu37  1  0.91258600  0.53357800  0.74986000  1
  Cu  Cu38  1  0.40466400  0.59447600  0.05849900  1
  Cu  Cu39  1  0.59533600  0.40552400  0.94150100  1
  Cu  Cu40  1  0.90442100  0.13768900  0.01523100  1
  Cu  Cu41  1  0.09557900  0.86231100  0.98476900  1
  Cu  Cu42  1  0.76028000  0.40339300  0.18771600  1
  Cu  Cu43  1  0.23972000  0.59660700  0.81228400  1
  Cu  Cu44  1  0.64902600  0.43908600  0.30780900  1
  Cu  Cu45  1  0.35097400  0.56091400  0.69219100  1
  Cu  Cu46  1  0.11944300  0.55096600  0.54403100  1
  Cu  Cu47  1  0.88055700  0.44903400  0.45596900  1
  Cu  Cu48  1  0.22513300  0.51894400  0.42076700  1
  Cu  Cu49  1  0.77486700  0.48105600  0.57923300  1
  C  C50  1  0.34348400  0.64933700  0.77446400  1
  C  C51  1  0.65651600  0.35066300  0.22553600  1
  C  C52  1  0.75709400  0.46586400  0.48828300  1
  C  C53  1  0.24290600  0.53413600  0.51171700  1
