# generated using pymatgen
data_Cu3NiC8
_symmetry_space_group_name_H-M   'P 1'
_cell_length_a   5.78658782
_cell_length_b   5.78658782
_cell_length_c   9.03595200
_cell_angle_alpha   90.00000000
_cell_angle_beta   90.00000000
_cell_angle_gamma   119.99999793
_symmetry_Int_Tables_number   1
_chemical_formula_structural   Cu3NiC8
_chemical_formula_sum   'Cu6 Ni2 C16'
_cell_volume   262.02917710
_cell_formula_units_Z   2
loop_
 _symmetry_equiv_pos_site_id
 _symmetry_equiv_pos_as_xyz
  1  'x, y, z'
loop_
 _atom_site_type_symbol
 _atom_site_label
 _atom_site_symmetry_multiplicity
 _atom_site_fract_x
 _atom_site_fract_y
 _atom_site_fract_z
 _atom_site_occupancy
  Ni  Ni0  1  0.33333300  0.66666700  0.49709600  1
  Ni  Ni1  1  0.66666700  0.33333300  0.99709600  1
  Cu  Cu2  1  0.16825600  0.83174400  0.21282800  1
  Cu  Cu3  1  0.16825600  0.33651100  0.21282800  1
  Cu  Cu4  1  0.66348900  0.83174400  0.21282800  1
  Cu  Cu5  1  0.33651100  0.16825600  0.71282800  1
  Cu  Cu6  1  0.83174400  0.66348900  0.71282800  1
  Cu  Cu7  1  0.83174400  0.16825600  0.71282800  1
  C  C8  1  0.16677400  0.83322600  0.59973300  1
  C  C9  1  0.03989900  0.51994900  0.33447600  1
  C  C10  1  0.33333300  0.66666700  0.10352700  1
  C  C11  1  0.00000000  0.00000000  0.31610400  1
  C  C12  1  0.00000000  0.00000000  0.81610400  1
  C  C13  1  0.16677400  0.33354800  0.59973300  1
  C  C14  1  0.48005100  0.96010100  0.33447600  1
  C  C15  1  0.48005100  0.51994900  0.33447600  1
  C  C16  1  0.33354800  0.16677400  0.09973300  1
  C  C17  1  0.66645200  0.83322600  0.59973300  1
  C  C18  1  0.51994900  0.48005100  0.83447600  1
  C  C19  1  0.51994900  0.03989900  0.83447600  1
  C  C20  1  0.66666700  0.33333300  0.60352700  1
  C  C21  1  0.83322600  0.66645200  0.09973300  1
  C  C22  1  0.96010100  0.48005100  0.83447600  1
  C  C23  1  0.83322600  0.16677400  0.09973300  1
