# generated using pymatgen
data_Cu7Ni3C37
_symmetry_space_group_name_H-M   'P 1'
_cell_length_a   8.55141267
_cell_length_b   8.55141267
_cell_length_c   8.55141226
_cell_angle_alpha   89.87868543
_cell_angle_beta   89.87868543
_cell_angle_gamma   89.87868581
_symmetry_Int_Tables_number   1
_chemical_formula_structural   Cu7Ni3C37
_chemical_formula_sum   'Cu7 Ni3 C37'
_cell_volume   625.33200597
_cell_formula_units_Z   1
loop_
 _symmetry_equiv_pos_site_id
 _symmetry_equiv_pos_as_xyz
  1  'x, y, z'
loop_
 _atom_site_type_symbol
 _atom_site_label
 _atom_site_symmetry_multiplicity
 _atom_site_fract_x
 _atom_site_fract_y
 _atom_site_fract_z
 _atom_site_occupancy
  C  C0  1  0.90654700  0.35756800  0.64536400  1
  C  C1  1  0.90654700  0.64536400  0.35756800  1
  C  C2  1  0.64536400  0.35756800  0.90654700  1
  C  C3  1  0.64536400  0.90654700  0.35756800  1
  C  C4  1  0.35163600  0.09033900  0.35163600  1
  C  C5  1  0.35163600  0.35163600  0.09033900  1
  C  C6  1  0.35756800  0.64536400  0.90654700  1
  C  C7  1  0.35756800  0.90654700  0.64536400  1
  C  C8  1  0.09033900  0.35163600  0.35163600  1
  Ni  Ni9  1  0.63288800  0.11518400  0.63288800  1
  Ni  Ni10  1  0.63288800  0.63288800  0.11518400  1
  Ni  Ni11  1  0.11518400  0.63288800  0.63288800  1
  Cu  Cu12  1  0.64294800  0.35841600  0.35841600  1
  Cu  Cu13  1  0.65234200  0.65234200  0.65234200  1
  Cu  Cu14  1  0.35841600  0.35841600  0.64294800  1
  Cu  Cu15  1  0.35841600  0.64294800  0.35841600  1
  Cu  Cu16  1  0.99976400  0.99976400  0.49799400  1
  Cu  Cu17  1  0.99976400  0.49799400  0.99976400  1
  Cu  Cu18  1  0.49799400  0.99976400  0.99976400  1
  C  C19  1  0.85218700  0.38280100  0.38280100  1
  C  C20  1  0.86655000  0.61568000  0.61568000  1
  C  C21  1  0.87714900  0.12468100  0.62159400  1
  C  C22  1  0.87714900  0.62159400  0.12468100  1
  C  C23  1  0.87844100  0.37633900  0.87844100  1
  C  C24  1  0.87844100  0.87844100  0.37633900  1
  C  C25  1  0.62159400  0.12468100  0.87714900  1
  C  C26  1  0.62159400  0.87714900  0.12468100  1
  C  C27  1  0.60988000  0.38059100  0.60988000  1
  C  C28  1  0.60988000  0.60988000  0.38059100  1
  C  C29  1  0.61586100  0.14470700  0.38049400  1
  C  C30  1  0.61586100  0.38049400  0.14470700  1
  C  C31  1  0.61568000  0.61568000  0.86655000  1
  C  C32  1  0.61568000  0.86655000  0.61568000  1
  C  C33  1  0.38049400  0.14470700  0.61586100  1
  C  C34  1  0.38049400  0.61586100  0.14470700  1
  C  C35  1  0.38280100  0.38280100  0.85218700  1
  C  C36  1  0.38280100  0.85218700  0.38280100  1
  C  C37  1  0.39435400  0.39435400  0.39435400  1
  C  C38  1  0.38059100  0.60988000  0.60988000  1
  C  C39  1  0.37838000  0.12292700  0.12292700  1
  C  C40  1  0.37633900  0.87844100  0.87844100  1
  C  C41  1  0.12292700  0.12292700  0.37838000  1
  C  C42  1  0.12292700  0.37838000  0.12292700  1
  C  C43  1  0.12468100  0.62159400  0.87714900  1
  C  C44  1  0.12468100  0.87714900  0.62159400  1
  C  C45  1  0.14470700  0.38049400  0.61586100  1
  C  C46  1  0.14470700  0.61586100  0.38049400  1
