# generated using pymatgen
data_Cu2Ni4C5
_symmetry_space_group_name_H-M   'P 1'
_cell_length_a   5.93713000
_cell_length_b   7.87132737
_cell_length_c   7.90849691
_cell_angle_alpha   85.99911894
_cell_angle_beta   68.70459736
_cell_angle_gamma   79.72677151
_symmetry_Int_Tables_number   1
_chemical_formula_structural   Cu2Ni4C5
_chemical_formula_sum   'Cu6 Ni12 C15'
_cell_volume   338.82761176
_cell_formula_units_Z   3
loop_
 _symmetry_equiv_pos_site_id
 _symmetry_equiv_pos_as_xyz
  1  'x, y, z'
loop_
 _atom_site_type_symbol
 _atom_site_label
 _atom_site_symmetry_multiplicity
 _atom_site_fract_x
 _atom_site_fract_y
 _atom_site_fract_z
 _atom_site_occupancy
  C  C0  1  0.13531300  0.21197000  0.62767700  1
  C  C1  1  0.20201400  0.45045900  0.37238400  1
  C  C2  1  0.53754500  0.08586200  0.36775600  1
  C  C3  1  0.37342900  0.77555300  0.39282000  1
  C  C4  1  0.63316000  0.21328200  0.63245600  1
  C  C5  1  0.71302700  0.43362000  0.36061700  1
  C  C6  1  0.77235900  0.57820800  0.64013800  1
  C  C7  1  0.86410000  0.79843700  0.36234800  1
  C  C8  1  0.95611600  0.89889700  0.63616000  1
  C  C9  1  0.99670900  0.00499300  0.00259700  1
  C  C10  1  0.16971300  0.33474400  0.99712500  1
  C  C11  1  0.49343100  0.00036800  0.00209200  1
  C  C12  1  0.33898200  0.66316900  0.98811400  1
  C  C13  1  0.66994900  0.33205600  0.99806800  1
  C  C14  1  0.83007700  0.66460400  0.00148700  1
  Ni  Ni15  1  0.04410200  0.54255000  0.14414100  1
  Ni  Ni16  1  0.22406700  0.88783300  0.13280900  1
  Ni  Ni17  1  0.37725200  0.22014200  0.13779900  1
  Ni  Ni18  1  0.54718900  0.56224800  0.14421200  1
  Ni  Ni19  1  0.09858500  0.77682400  0.87060900  1
  Ni  Ni20  1  0.29483400  0.12835400  0.85421300  1
  Ni  Ni21  1  0.69396900  0.88978300  0.14953000  1
  Ni  Ni22  1  0.87827400  0.22695200  0.13977300  1
  Ni  Ni23  1  0.46441800  0.44066400  0.85426700  1
  Ni  Ni24  1  0.78468200  0.10020800  0.85408600  1
  Ni  Ni25  1  0.63829200  0.77769000  0.85568400  1
  Ni  Ni26  1  0.95948900  0.44732000  0.85949000  1
  Cu  Cu27  1  0.07281500  0.67902000  0.48762100  1
  Cu  Cu28  1  0.24625400  0.99594300  0.50555100  1
  Cu  Cu29  1  0.43005600  0.31347400  0.48003100  1
  Cu  Cu30  1  0.75073700  0.00261700  0.49987200  1
  Cu  Cu31  1  0.62121600  0.65564600  0.46802500  1
  Cu  Cu32  1  0.90637800  0.35095200  0.52116000  1
