# generated using pymatgen
data_CuNi3C2
_symmetry_space_group_name_H-M   'P 1'
_cell_length_a   4.68938300
_cell_length_b   6.05450963
_cell_length_c   9.85106740
_cell_angle_alpha   107.64977974
_cell_angle_beta   92.10196927
_cell_angle_gamma   89.81774556
_symmetry_Int_Tables_number   1
_chemical_formula_structural   CuNi3C2
_chemical_formula_sum   'Cu4 Ni12 C8'
_cell_volume   266.33636036
_cell_formula_units_Z   4
loop_
 _symmetry_equiv_pos_site_id
 _symmetry_equiv_pos_as_xyz
  1  'x, y, z'
loop_
 _atom_site_type_symbol
 _atom_site_label
 _atom_site_symmetry_multiplicity
 _atom_site_fract_x
 _atom_site_fract_y
 _atom_site_fract_z
 _atom_site_occupancy
  C  C0  1  0.55294200  0.86033100  0.22818700  1
  C  C1  1  0.50086000  0.12707000  0.74276200  1
  C  C2  1  0.45445200  0.39365600  0.27608500  1
  C  C3  1  0.46348800  0.61167400  0.75369000  1
  C  C4  1  0.98253300  0.24485000  0.49929600  1
  C  C5  1  0.01314300  0.49924800  0.99476600  1
  C  C6  1  0.05707000  0.00256600  0.00237900  1
  C  C7  1  0.98924300  0.75997300  0.50608100  1
  Ni  Ni8  1  0.18565100  0.45522800  0.40116700  1
  Ni  Ni9  1  0.20164300  0.70945500  0.90482900  1
  Ni  Ni10  1  0.19582500  0.18901000  0.89830900  1
  Ni  Ni11  1  0.31334300  0.81043000  0.65625800  1
  Ni  Ni12  1  0.30488500  0.07735200  0.15408800  1
  Ni  Ni13  1  0.31628500  0.57473600  0.15184900  1
  Ni  Ni14  1  0.28468100  0.33302300  0.64808300  1
  Ni  Ni15  1  0.68486300  0.17269100  0.34358400  1
  Ni  Ni16  1  0.68927300  0.44150700  0.84749300  1
  Ni  Ni17  1  0.69251600  0.67163300  0.34527100  1
  Ni  Ni18  1  0.81316800  0.80731500  0.09727700  1
  Ni  Ni19  1  0.79936200  0.04775700  0.59879700  1
  Cu  Cu20  1  0.19757400  0.94892500  0.39744600  1
  Cu  Cu21  1  0.71002500  0.92126000  0.85496400  1
  Cu  Cu22  1  0.78361500  0.54945800  0.60240100  1
  Cu  Cu23  1  0.81355900  0.29085200  0.09493800  1
