# generated using pymatgen
data_CuNiC10
_symmetry_space_group_name_H-M   'P 1'
_cell_length_a   3.16511100
_cell_length_b   8.24376100
_cell_length_c   14.30912600
_cell_angle_alpha   89.84852712
_cell_angle_beta   90.00000000
_cell_angle_gamma   90.00000000
_symmetry_Int_Tables_number   1
_chemical_formula_structural   CuNiC10
_chemical_formula_sum   'Cu3 Ni3 C30'
_cell_volume   373.35840109
_cell_formula_units_Z   3
loop_
 _symmetry_equiv_pos_site_id
 _symmetry_equiv_pos_as_xyz
  1  'x, y, z'
loop_
 _atom_site_type_symbol
 _atom_site_label
 _atom_site_symmetry_multiplicity
 _atom_site_fract_x
 _atom_site_fract_y
 _atom_site_fract_z
 _atom_site_occupancy
  C  C0  1  0.50000000  0.70724300  0.99023800  1
  C  C1  1  0.50000000  0.65831200  0.35759400  1
  C  C2  1  0.50000000  0.63204300  0.65113300  1
  C  C3  1  0.50000000  0.20724000  0.49203700  1
  C  C4  1  0.50000000  0.15863600  0.85755300  1
  C  C5  1  0.50000000  0.13298300  0.15066600  1
  Ni  Ni6  1  0.00000000  0.86674500  0.50628300  1
  Ni  Ni7  1  0.00000000  0.80818100  0.17976600  1
  Ni  Ni8  1  0.00000000  0.36550000  0.00594500  1
  Cu  Cu9  1  0.00000000  0.82505100  0.81607900  1
  Cu  Cu10  1  0.00000000  0.32447800  0.31664900  1
  Cu  Cu11  1  0.00000000  0.31208100  0.68024000  1
  C  C12  1  0.50000000  0.00079600  0.66808100  1
  C  C13  1  0.00000000  0.00023200  0.99873200  1
  C  C14  1  0.50000000  0.00212900  0.33334500  1
  C  C15  1  0.50000000  0.49817800  0.16759100  1
  C  C16  1  0.00000000  0.49875300  0.49931400  1
  C  C17  1  0.50000000  0.50132100  0.83249700  1
  C  C18  1  0.50000000  0.99100100  0.43008800  1
  C  C19  1  0.50000000  0.98265600  0.76466900  1
  C  C20  1  0.50000000  0.86297200  0.61135400  1
  C  C21  1  0.50000000  0.86189700  0.27981500  1
  C  C22  1  0.00000000  0.84609100  0.95815300  1
  C  C23  1  0.50000000  0.65148000  0.12593200  1
  C  C24  1  0.50000000  0.65336500  0.79011600  1
  C  C25  1  0.00000000  0.63651300  0.44329800  1
  C  C26  1  0.00000000  0.51251800  0.59653400  1
  C  C27  1  0.50000000  0.48902200  0.92909200  1
  C  C28  1  0.50000000  0.48242800  0.26438500  1
  C  C29  1  0.50000000  0.36076000  0.11133100  1
  C  C30  1  0.50000000  0.36162400  0.77789500  1
  C  C31  1  0.00000000  0.34550100  0.45819200  1
  C  C32  1  0.50000000  0.15498600  0.62785900  1
  C  C33  1  0.50000000  0.15351300  0.29022300  1
  C  C34  1  0.00000000  0.13693900  0.94176200  1
  C  C35  1  0.00000000  0.01683100  0.09555900  1
