# generated using pymatgen
data_CuNi2C13
_symmetry_space_group_name_H-M   'P 1'
_cell_length_a   7.22084900
_cell_length_b   8.99647800
_cell_length_c   10.87925714
_cell_angle_alpha   88.64500458
_cell_angle_beta   90.00000000
_cell_angle_gamma   90.00000000
_symmetry_Int_Tables_number   1
_chemical_formula_structural   CuNi2C13
_chemical_formula_sum   'Cu4 Ni8 C52'
_cell_volume   706.54295381
_cell_formula_units_Z   4
loop_
 _symmetry_equiv_pos_site_id
 _symmetry_equiv_pos_as_xyz
  1  'x, y, z'
loop_
 _atom_site_type_symbol
 _atom_site_label
 _atom_site_symmetry_multiplicity
 _atom_site_fract_x
 _atom_site_fract_y
 _atom_site_fract_z
 _atom_site_occupancy
  C  C0  1  0.32911900  0.94766700  0.84808800  1
  C  C1  1  0.17088100  0.94766700  0.34808800  1
  C  C2  1  0.82911900  0.05233300  0.65191200  1
  C  C3  1  0.67088100  0.05233300  0.15191200  1
  C  C4  1  0.54820800  0.64909000  0.65309500  1
  C  C5  1  0.95179200  0.64909000  0.15309500  1
  C  C6  1  0.76926400  0.60159300  0.61796700  1
  C  C7  1  0.73073600  0.60159300  0.11796700  1
  C  C8  1  0.66867900  0.53627000  0.74799500  1
  C  C9  1  0.83132100  0.53627000  0.24799500  1
  C  C10  1  0.10040800  0.52651500  0.88782400  1
  C  C11  1  0.39959200  0.52651500  0.38782400  1
  C  C12  1  0.60040800  0.47348500  0.61217600  1
  C  C13  1  0.89959200  0.47348500  0.11217600  1
  C  C14  1  0.16867900  0.46373000  0.75200500  1
  C  C15  1  0.33132100  0.46373000  0.25200500  1
  C  C16  1  0.26926400  0.39840700  0.88203300  1
  C  C17  1  0.23073600  0.39840700  0.38203300  1
  C  C18  1  0.04820800  0.35091000  0.84690500  1
  C  C19  1  0.45179200  0.35091000  0.34690500  1
  Ni  Ni20  1  0.83223800  0.82513900  0.88680700  1
  Ni  Ni21  1  0.66776200  0.82513900  0.38680700  1
  Ni  Ni22  1  0.16461500  0.73660000  0.58482900  1
  Ni  Ni23  1  0.33538500  0.73660000  0.08482900  1
  Ni  Ni24  1  0.66461500  0.26340000  0.91517100  1
  Ni  Ni25  1  0.83538500  0.26340000  0.41517100  1
  Ni  Ni26  1  0.33223800  0.17486100  0.61319300  1
  Ni  Ni27  1  0.16776200  0.17486100  0.11319300  1
  Cu  Cu28  1  0.64661800  0.56597700  0.65710700  1
  Cu  Cu29  1  0.85338200  0.56597700  0.15710700  1
  Cu  Cu30  1  0.14661800  0.43402300  0.84289300  1
  Cu  Cu31  1  0.35338200  0.43402300  0.34289300  1
  C  C32  1  0.98860400  0.89944400  0.81649100  1
  C  C33  1  0.51139600  0.89944400  0.31649100  1
  C  C34  1  0.67288300  0.88576200  0.51155900  1
  C  C35  1  0.66481400  0.87102100  0.81147000  1
  C  C36  1  0.04978300  0.87355500  0.55807100  1
  C  C37  1  0.82711700  0.88576200  0.01155900  1
  C  C38  1  0.83518600  0.87102100  0.31147000  1
  C  C39  1  0.45021700  0.87355500  0.05807100  1
  C  C40  1  0.30708400  0.76848100  0.67982800  1
  C  C41  1  0.19291600  0.76848100  0.17982800  1
  C  C42  1  0.24189900  0.71232200  0.96452400  1
  C  C43  1  0.25810100  0.71232200  0.46452400  1
  C  C44  1  0.84902300  0.66366400  0.89086200  1
  C  C45  1  0.65097700  0.66366400  0.39086200  1
  C  C46  1  0.04837300  0.61133900  0.62345600  1
  C  C47  1  0.45162700  0.61133900  0.12345600  1
  C  C48  1  0.54837300  0.38866100  0.87654400  1
  C  C49  1  0.95162700  0.38866100  0.37654400  1
  C  C50  1  0.34902300  0.33633600  0.60913800  1
  C  C51  1  0.15097700  0.33633600  0.10913800  1
  C  C52  1  0.74189900  0.28767800  0.53547600  1
  C  C53  1  0.75810100  0.28767800  0.03547600  1
  C  C54  1  0.80708400  0.23151900  0.82017200  1
  C  C55  1  0.69291600  0.23151900  0.32017200  1
  C  C56  1  0.54978300  0.12644500  0.94192900  1
  C  C57  1  0.16481400  0.12897900  0.68853000  1
  C  C58  1  0.17288300  0.11423800  0.98844100  1
  C  C59  1  0.95021700  0.12644500  0.44192900  1
  C  C60  1  0.33518600  0.12897900  0.18853000  1
  C  C61  1  0.32711700  0.11423800  0.48844100  1
  C  C62  1  0.48860400  0.10055600  0.68350900  1
  C  C63  1  0.01139600  0.10055600  0.18350900  1
