# generated using pymatgen
data_Cu(Ni2C11)2
_symmetry_space_group_name_H-M   'P 1'
_cell_length_a   9.66290362
_cell_length_b   9.58966464
_cell_length_c   9.27853995
_cell_angle_alpha   61.58499187
_cell_angle_beta   60.79243977
_cell_angle_gamma   57.62256836
_symmetry_Int_Tables_number   1
_chemical_formula_structural   Cu(Ni2C11)2
_chemical_formula_sum   'Cu2 Ni8 C44'
_cell_volume   606.36473657
_cell_formula_units_Z   2
loop_
 _symmetry_equiv_pos_site_id
 _symmetry_equiv_pos_as_xyz
  1  'x, y, z'
loop_
 _atom_site_type_symbol
 _atom_site_label
 _atom_site_symmetry_multiplicity
 _atom_site_fract_x
 _atom_site_fract_y
 _atom_site_fract_z
 _atom_site_occupancy
  C  C0  1  0.45940400  0.04059600  0.45940400  1
  C  C1  1  0.04215600  0.45784400  0.45784400  1
  C  C2  1  0.79215600  0.20784400  0.20784400  1
  C  C3  1  0.20940400  0.79059600  0.20940400  1
  C  C4  1  0.04059600  0.45940400  0.04059600  1
  C  C5  1  0.45784400  0.04215600  0.04215600  1
  C  C6  1  0.20784400  0.79215600  0.79215600  1
  C  C7  1  0.79059600  0.20940400  0.79059600  1
  C  C8  1  0.62500000  0.62500000  0.62500000  1
  C  C9  1  0.62500000  0.62500000  0.12500000  1
  C  C10  1  0.62500000  0.12500000  0.62500000  1
  C  C11  1  0.12500000  0.62500000  0.62500000  1
  Ni  Ni12  1  0.41353000  0.40975400  0.39393100  1
  Ni  Ni13  1  0.84024600  0.83647000  0.46721600  1
  Ni  Ni14  1  0.39393100  0.78278400  0.41353000  1
  Ni  Ni15  1  0.78278400  0.39393100  0.40975400  1
  Ni  Ni16  1  0.46721600  0.85606900  0.84024600  1
  Ni  Ni17  1  0.85606900  0.46721600  0.83647000  1
  Ni  Ni18  1  0.40975400  0.41353000  0.78278400  1
  Ni  Ni19  1  0.83647000  0.84024600  0.85606900  1
  Cu  Cu20  1  0.00000000  0.00000000  0.00000000  1
  Cu  Cu21  1  0.25000000  0.25000000  0.25000000  1
  C  C22  1  0.43059500  0.26619000  0.51499500  1
  C  C23  1  0.80639100  0.07777900  0.05840100  1
  C  C24  1  0.54597100  0.42043800  0.26059700  1
  C  C25  1  0.82956200  0.70402900  0.47700700  1
  C  C26  1  0.26059700  0.77299300  0.54597100  1
  C  C27  1  0.71041100  0.98419600  0.45830500  1
  C  C28  1  0.05840100  0.05742900  0.80639100  1
  C  C29  1  0.07777900  0.80639100  0.05742900  1
  C  C30  1  0.84708700  0.45830500  0.98419600  1
  C  C31  1  0.77299300  0.26059700  0.42043800  1
  C  C32  1  0.98381000  0.81940500  0.46178000  1
  C  C33  1  0.05742900  0.05840100  0.07777900  1
  C  C34  1  0.51499500  0.78822000  0.43059500  1
  C  C35  1  0.78822000  0.51499500  0.26619000  1
  C  C36  1  0.26580400  0.53958900  0.40291300  1
  C  C37  1  0.45830500  0.84708700  0.71041100  1
  C  C38  1  0.79169500  0.40291300  0.53958900  1
  C  C39  1  0.98419600  0.71041100  0.84708700  1
  C  C40  1  0.46178000  0.73500500  0.98381000  1
  C  C41  1  0.73500500  0.46178000  0.81940500  1
  C  C42  1  0.19257100  0.19159900  0.17222100  1
  C  C43  1  0.26619000  0.43059500  0.78822000  1
  C  C44  1  0.47700700  0.98940300  0.82956200  1
  C  C45  1  0.40291300  0.79169500  0.26580400  1
  C  C46  1  0.17222100  0.44360900  0.19257100  1
  C  C47  1  0.19159900  0.19257100  0.44360900  1
  C  C48  1  0.53958900  0.26580400  0.79169500  1
  C  C49  1  0.98940300  0.47700700  0.70402900  1
  C  C50  1  0.42043800  0.54597100  0.77299300  1
  C  C51  1  0.70402900  0.82956200  0.98940300  1
  C  C52  1  0.44360900  0.17222100  0.19159900  1
  C  C53  1  0.81940500  0.98381000  0.73500500  1
