# generated using pymatgen
data_Cu2NiC32
_symmetry_space_group_name_H-M   'P 1'
_cell_length_a   8.82031269
_cell_length_b   8.82031269
_cell_length_c   8.82031263
_cell_angle_alpha   57.99494472
_cell_angle_beta   57.99494472
_cell_angle_gamma   57.99494304
_symmetry_Int_Tables_number   1
_chemical_formula_structural   Cu2NiC32
_chemical_formula_sum   'Cu2 Ni1 C32'
_cell_volume   462.90046954
_cell_formula_units_Z   1
loop_
 _symmetry_equiv_pos_site_id
 _symmetry_equiv_pos_as_xyz
  1  'x, y, z'
loop_
 _atom_site_type_symbol
 _atom_site_label
 _atom_site_symmetry_multiplicity
 _atom_site_fract_x
 _atom_site_fract_y
 _atom_site_fract_z
 _atom_site_occupancy
  Ni  Ni0  1  0.00000000  0.00000000  0.00000000  1
  Cu  Cu1  1  0.85331900  0.85331900  0.85331900  1
  Cu  Cu2  1  0.14668100  0.14668100  0.14668100  1
  C  C3  1  0.35575300  0.35575300  0.35575300  1
  C  C4  1  0.64424700  0.64424700  0.64424700  1
  C  C5  1  0.03719600  0.45411900  0.75606700  1
  C  C6  1  0.45411900  0.75606700  0.03719600  1
  C  C7  1  0.75606700  0.03719600  0.45411900  1
  C  C8  1  0.24393300  0.96280400  0.54588100  1
  C  C9  1  0.54588100  0.24393300  0.96280400  1
  C  C10  1  0.96280400  0.54588100  0.24393300  1
  C  C11  1  0.47534600  0.75476800  0.84949900  1
  C  C12  1  0.52665100  0.44518800  0.80353400  1
  C  C13  1  0.80353400  0.52665100  0.44518800  1
  C  C14  1  0.80776500  0.00487500  0.61047600  1
  C  C15  1  0.44518800  0.80353400  0.52665100  1
  C  C16  1  0.75476800  0.84949900  0.47534600  1
  C  C17  1  0.00487500  0.61047600  0.80776500  1
  C  C18  1  0.84949900  0.47534600  0.75476800  1
  C  C19  1  0.90707900  0.74969800  0.10177000  1
  C  C20  1  0.10177000  0.90707900  0.74969800  1
  C  C21  1  0.74969800  0.10177000  0.90707900  1
  C  C22  1  0.38952400  0.19223500  0.99512500  1
  C  C23  1  0.61047600  0.80776500  0.00487500  1
  C  C24  1  0.25030200  0.89823000  0.09292100  1
  C  C25  1  0.89823000  0.09292100  0.25030200  1
  C  C26  1  0.09292100  0.25030200  0.89823000  1
  C  C27  1  0.15050100  0.52465400  0.24523200  1
  C  C28  1  0.99512500  0.38952400  0.19223500  1
  C  C29  1  0.24523200  0.15050100  0.52465400  1
  C  C30  1  0.55481200  0.19646600  0.47334900  1
  C  C31  1  0.19223500  0.99512500  0.38952400  1
  C  C32  1  0.19646600  0.47334900  0.55481200  1
  C  C33  1  0.47334900  0.55481200  0.19646600  1
  C  C34  1  0.52465400  0.24523200  0.15050100  1
