# generated using pymatgen
data_Cu7(NiC2)3
_symmetry_space_group_name_H-M   'P 1'
_cell_length_a   10.54512200
_cell_length_b   10.42469839
_cell_length_c   7.10247423
_cell_angle_alpha   90.56750834
_cell_angle_beta   90.37166621
_cell_angle_gamma   118.29839833
_symmetry_Int_Tables_number   1
_chemical_formula_structural   Cu7(NiC2)3
_chemical_formula_sum   'Cu14 Ni6 C12'
_cell_volume   687.37410403
_cell_formula_units_Z   2
loop_
 _symmetry_equiv_pos_site_id
 _symmetry_equiv_pos_as_xyz
  1  'x, y, z'
loop_
 _atom_site_type_symbol
 _atom_site_label
 _atom_site_symmetry_multiplicity
 _atom_site_fract_x
 _atom_site_fract_y
 _atom_site_fract_z
 _atom_site_occupancy
  C  C0  1  0.39599800  0.24475700  0.06752900  1
  C  C1  1  0.93668100  0.24238900  0.32685600  1
  C  C2  1  0.35596000  0.74773700  0.39004800  1
  C  C3  1  0.66734700  0.26316000  0.60750100  1
  C  C4  1  0.01562300  0.74231400  0.62386200  1
  C  C5  1  0.63040100  0.76361400  0.98797400  1
  C  C6  1  0.99866300  0.74955900  0.99560000  1
  C  C7  1  0.00668700  0.25349800  0.00976800  1
  C  C8  1  0.68253100  0.97298100  0.35671900  1
  C  C9  1  0.66575800  0.52893200  0.32576700  1
  C  C10  1  0.30751400  0.08918800  0.62712600  1
  C  C11  1  0.31044900  0.40835300  0.63368100  1
  Ni  Ni12  1  0.98176700  0.74564100  0.21588700  1
  Ni  Ni13  1  0.23756800  0.75365800  0.02175800  1
  Ni  Ni14  1  0.20746700  0.25192700  0.24511100  1
  Ni  Ni15  1  0.78386300  0.74908700  0.76668000  1
  Ni  Ni16  1  0.76363600  0.26041500  0.97094900  1
  Ni  Ni17  1  0.03395700  0.25958200  0.80019800  1
  Cu  Cu18  1  0.66018800  0.03897800  0.20843100  1
  Cu  Cu19  1  0.72440200  0.75568800  0.37225500  1
  Cu  Cu20  1  0.81001700  0.44798100  0.45029000  1
  Cu  Cu21  1  0.82164200  0.05499800  0.48350600  1
  Cu  Cu22  1  0.54134200  0.50511800  0.36929700  1
  Cu  Cu23  1  0.54554400  0.00417400  0.37415300  1
  Cu  Cu24  1  0.43847900  0.47530200  0.61277700  1
  Cu  Cu25  1  0.43737100  0.02780300  0.60936000  1
  Cu  Cu26  1  0.15960200  0.47592900  0.52498300  1
  Cu  Cu27  1  0.15698400  0.02071300  0.51389900  1
  Cu  Cu28  1  0.30551900  0.99998600  0.76795700  1
  Cu  Cu29  1  0.31494800  0.49100500  0.78007100  1
  Cu  Cu30  1  0.44572800  0.02692400  0.89998200  1
  Cu  Cu31  1  0.45836300  0.47460900  0.91102700  1
