# generated using pymatgen
data_CuNiC16
_symmetry_space_group_name_H-M   'P 1'
_cell_length_a   5.21129100
_cell_length_b   7.40605625
_cell_length_c   10.70753719
_cell_angle_alpha   104.98632125
_cell_angle_beta   96.90796290
_cell_angle_gamma   107.98935845
_symmetry_Int_Tables_number   1
_chemical_formula_structural   CuNiC16
_chemical_formula_sum   'Cu2 Ni2 C32'
_cell_volume   370.56942937
_cell_formula_units_Z   2
loop_
 _symmetry_equiv_pos_site_id
 _symmetry_equiv_pos_as_xyz
  1  'x, y, z'
loop_
 _atom_site_type_symbol
 _atom_site_label
 _atom_site_symmetry_multiplicity
 _atom_site_fract_x
 _atom_site_fract_y
 _atom_site_fract_z
 _atom_site_occupancy
  C  C0  1  0.54167100  0.61991000  0.80273200  1
  C  C1  1  0.94357300  0.86270100  0.69907200  1
  C  C2  1  0.05642700  0.13729900  0.30092800  1
  C  C3  1  0.45832900  0.38009000  0.19726800  1
  Ni  Ni4  1  0.00000000  0.50000000  0.00000000  1
  Ni  Ni5  1  0.50000000  0.50000000  0.50000000  1
  Cu  Cu6  1  0.00000000  0.00000000  0.00000000  1
  Cu  Cu7  1  0.50000000  0.00000000  0.50000000  1
  C  C8  1  0.48829900  0.04828200  0.81817600  1
  C  C9  1  0.99597000  0.45081900  0.68526100  1
  C  C10  1  0.00403000  0.54918100  0.31473900  1
  C  C11  1  0.51170100  0.95171800  0.18182400  1
  C  C12  1  0.32183300  0.30421400  0.96639500  1
  C  C13  1  0.17420200  0.18414700  0.53238800  1
  C  C14  1  0.82579800  0.81585300  0.46761200  1
  C  C15  1  0.67816700  0.69578600  0.03360500  1
  C  C16  1  0.81978000  0.70175500  0.97810100  1
  C  C17  1  0.59922300  0.27282400  0.89250300  1
  C  C18  1  0.12602500  0.47620300  0.83077700  1
  C  C19  1  0.23630500  0.93990500  0.86883400  1
  C  C20  1  0.71229900  0.95015000  0.83206700  1
  C  C21  1  0.78829800  0.55990400  0.68096100  1
  C  C22  1  0.24589400  0.54536200  0.63161400  1
  C  C23  1  0.36797600  0.00479800  0.66739800  1
  C  C24  1  0.85103100  0.22329300  0.60146400  1
  C  C25  1  0.30789200  0.18302600  0.47492400  1
  C  C26  1  0.69210800  0.81697400  0.52507600  1
  C  C27  1  0.14896900  0.77670700  0.39853600  1
  C  C28  1  0.63202400  0.99520200  0.33260200  1
  C  C29  1  0.75410600  0.45463800  0.36838600  1
  C  C30  1  0.21170200  0.44009600  0.31903900  1
  C  C31  1  0.28770100  0.04985000  0.16793300  1
  C  C32  1  0.76369500  0.06009500  0.13116600  1
  C  C33  1  0.87397500  0.52379700  0.16922300  1
  C  C34  1  0.40077700  0.72717600  0.10749700  1
  C  C35  1  0.18022000  0.29824500  0.02189900  1
