# generated using pymatgen
data_Cu(NiC4)3
_symmetry_space_group_name_H-M   'P 1'
_cell_length_a   6.51199300
_cell_length_b   7.90841865
_cell_length_c   8.55310090
_cell_angle_alpha   96.17797114
_cell_angle_beta   97.31490256
_cell_angle_gamma   110.47871871
_symmetry_Int_Tables_number   1
_chemical_formula_structural   Cu(NiC4)3
_chemical_formula_sum   'Cu2 Ni6 C24'
_cell_volume   403.75994336
_cell_formula_units_Z   2
loop_
 _symmetry_equiv_pos_site_id
 _symmetry_equiv_pos_as_xyz
  1  'x, y, z'
loop_
 _atom_site_type_symbol
 _atom_site_label
 _atom_site_symmetry_multiplicity
 _atom_site_fract_x
 _atom_site_fract_y
 _atom_site_fract_z
 _atom_site_occupancy
  C  C0  1  0.70669900  0.96863500  0.69969500  1
  C  C1  1  0.29330100  0.03136500  0.30030500  1
  C  C2  1  0.12951100  0.33755800  0.66428500  1
  C  C3  1  0.87048900  0.66244200  0.33571500  1
  Ni  Ni4  1  0.73400200  0.90267100  0.07847100  1
  Ni  Ni5  1  0.37156400  0.66983600  0.22856400  1
  Ni  Ni6  1  0.80842700  0.21406100  0.32965900  1
  Ni  Ni7  1  0.19157300  0.78593900  0.67034100  1
  Ni  Ni8  1  0.62843600  0.33016400  0.77143600  1
  Ni  Ni9  1  0.26599800  0.09732900  0.92152900  1
  Cu  Cu10  1  0.11918600  0.39913900  0.12892000  1
  Cu  Cu11  1  0.88081400  0.60086100  0.87108000  1
  C  C12  1  0.73015000  0.88450100  0.90419300  1
  C  C13  1  0.55207300  0.64544600  0.34423600  1
  C  C14  1  0.48366200  0.81200300  0.11310700  1
  C  C15  1  0.24444100  0.49241600  0.09748300  1
  C  C16  1  0.11908900  0.17625800  0.82272200  1
  C  C17  1  0.02692500  0.22527200  0.43954000  1
  C  C18  1  0.81912200  0.11571900  0.15343500  1
  C  C19  1  0.40088200  0.89590800  0.61986600  1
  C  C20  1  0.20878200  0.73670200  0.30150000  1
  C  C21  1  0.83845000  0.40795800  0.29648900  1
  C  C22  1  0.16155000  0.59204200  0.70351100  1
  C  C23  1  0.79121800  0.26329800  0.69850000  1
  C  C24  1  0.59911800  0.10409200  0.38013400  1
  C  C25  1  0.18087800  0.88428100  0.84656500  1
  C  C26  1  0.97307500  0.77472800  0.56046000  1
  C  C27  1  0.88091100  0.82374200  0.17727800  1
  C  C28  1  0.75555900  0.50758400  0.90251700  1
  C  C29  1  0.51633800  0.18799700  0.88689300  1
  C  C30  1  0.44792700  0.35455400  0.65576400  1
  C  C31  1  0.26985000  0.11549900  0.09580700  1
