# generated using pymatgen
data_Cu(NiC9)2
_symmetry_space_group_name_H-M   'P 1'
_cell_length_a   7.35513894
_cell_length_b   7.35513894
_cell_length_c   7.35513852
_cell_angle_alpha   58.98648827
_cell_angle_beta   58.98648827
_cell_angle_gamma   58.98649093
_symmetry_Int_Tables_number   1
_chemical_formula_structural   Cu(NiC9)2
_chemical_formula_sum   'Cu1 Ni2 C18'
_cell_volume   274.85182485
_cell_formula_units_Z   1
loop_
 _symmetry_equiv_pos_site_id
 _symmetry_equiv_pos_as_xyz
  1  'x, y, z'
loop_
 _atom_site_type_symbol
 _atom_site_label
 _atom_site_symmetry_multiplicity
 _atom_site_fract_x
 _atom_site_fract_y
 _atom_site_fract_z
 _atom_site_occupancy
  Ni  Ni0  1  0.79422600  0.79422600  0.79422600  1
  Ni  Ni1  1  0.20577400  0.20577400  0.20577400  1
  Cu  Cu2  1  0.00000000  0.00000000  0.00000000  1
  C  C3  1  0.63064200  0.36634100  0.75464800  1
  C  C4  1  0.63365900  0.24535200  0.36935800  1
  C  C5  1  0.36935800  0.63365900  0.24535200  1
  C  C6  1  0.24535200  0.36935800  0.63365900  1
  C  C7  1  0.36634100  0.75464800  0.63064200  1
  C  C8  1  0.75464800  0.63064200  0.36634100  1
  C  C9  1  0.45943900  0.20427300  0.58009400  1
  C  C10  1  0.20427300  0.58009400  0.45943900  1
  C  C11  1  0.58009400  0.45943900  0.20427300  1
  C  C12  1  0.41990600  0.54056100  0.79572700  1
  C  C13  1  0.83673700  0.08702600  0.33547100  1
  C  C14  1  0.79572700  0.41990600  0.54056100  1
  C  C15  1  0.54056100  0.79572700  0.41990600  1
  C  C16  1  0.08702600  0.33547100  0.83673700  1
  C  C17  1  0.33547100  0.83673700  0.08702600  1
  C  C18  1  0.91297400  0.66452900  0.16326300  1
  C  C19  1  0.66452900  0.16326300  0.91297400  1
  C  C20  1  0.16326300  0.91297400  0.66452900  1
