# generated using pymatgen
data_Cu40Ni13C31
_symmetry_space_group_name_H-M   'P 1'
_cell_length_a   17.18306629
_cell_length_b   17.18306629
_cell_length_c   7.88108300
_cell_angle_alpha   90.00000000
_cell_angle_beta   90.00000000
_cell_angle_gamma   120.00000110
_symmetry_Int_Tables_number   1
_chemical_formula_structural   Cu40Ni13C31
_chemical_formula_sum   'Cu80 Ni26 C62'
_cell_volume   2015.19862916
_cell_formula_units_Z   2
loop_
 _symmetry_equiv_pos_site_id
 _symmetry_equiv_pos_as_xyz
  1  'x, y, z'
loop_
 _atom_site_type_symbol
 _atom_site_label
 _atom_site_symmetry_multiplicity
 _atom_site_fract_x
 _atom_site_fract_y
 _atom_site_fract_z
 _atom_site_occupancy
  Ni  Ni0  1  0.00000000  0.00000000  0.32848900  1
  Ni  Ni1  1  0.00000000  0.00000000  0.67151100  1
  Ni  Ni2  1  0.27016300  0.00000000  0.30547200  1
  Ni  Ni3  1  0.72983700  0.00000000  0.30547200  1
  Ni  Ni4  1  0.00000000  0.27016300  0.30547200  1
  Ni  Ni5  1  0.72983700  0.72983700  0.30547200  1
  Ni  Ni6  1  0.27016300  0.27016300  0.30547200  1
  Ni  Ni7  1  0.00000000  0.72983700  0.30547200  1
  Ni  Ni8  1  0.27016300  0.00000000  0.69452800  1
  Ni  Ni9  1  0.72983700  0.72983700  0.69452800  1
  Ni  Ni10  1  0.00000000  0.27016300  0.69452800  1
  Ni  Ni11  1  0.00000000  0.72983700  0.69452800  1
  Ni  Ni12  1  0.27016300  0.27016300  0.69452800  1
  Ni  Ni13  1  0.72983700  0.00000000  0.69452800  1
  Ni  Ni14  1  0.57688400  0.15376900  0.50000000  1
  Ni  Ni15  1  0.42311600  0.84623100  0.50000000  1
  Ni  Ni16  1  0.84623100  0.42311600  0.50000000  1
  Ni  Ni17  1  0.57688400  0.42311600  0.50000000  1
  Ni  Ni18  1  0.42311600  0.57688400  0.50000000  1
  Ni  Ni19  1  0.15376900  0.57688400  0.50000000  1
  Ni  Ni20  1  0.24378700  0.48757400  0.00000000  1
  Ni  Ni21  1  0.75621300  0.51242600  0.00000000  1
  Ni  Ni22  1  0.51242600  0.75621300  0.00000000  1
  Ni  Ni23  1  0.24378700  0.75621300  0.00000000  1
  Ni  Ni24  1  0.75621300  0.24378700  0.00000000  1
  Ni  Ni25  1  0.48757400  0.24378700  0.00000000  1
  C  C26  1  0.60562200  0.21124300  0.18226700  1
  C  C27  1  0.39437800  0.78875700  0.18226700  1
  C  C28  1  0.78875700  0.39437800  0.18226700  1
  C  C29  1  0.60562200  0.39437800  0.18226700  1
  C  C30  1  0.39437800  0.60562200  0.18226700  1
  C  C31  1  0.21124300  0.60562200  0.18226700  1
  C  C32  1  0.39437800  0.78875700  0.81773300  1
  C  C33  1  0.39437800  0.60562200  0.81773300  1
  C  C34  1  0.21124300  0.60562200  0.81773300  1
  C  C35  1  0.78875700  0.39437800  0.81773300  1
  C  C36  1  0.60562200  0.39437800  0.81773300  1
  C  C37  1  0.60562200  0.21124300  0.81773300  1
  C  C38  1  0.17784200  0.35568300  0.23437400  1
  C  C39  1  0.82215800  0.64431700  0.23437400  1
  C  C40  1  0.64431700  0.82215800  0.23437400  1
  C  C41  1  0.17784200  0.82215800  0.23437400  1
  C  C42  1  0.82215800  0.17784200  0.23437400  1
  C  C43  1  0.35568300  0.17784200  0.23437400  1
  C  C44  1  0.82215800  0.64431700  0.76562600  1
  C  C45  1  0.82215800  0.17784200  0.76562600  1
  C  C46  1  0.35568300  0.17784200  0.76562600  1
  C  C47  1  0.64431700  0.82215800  0.76562600  1
  C  C48  1  0.17784200  0.82215800  0.76562600  1
  C  C49  1  0.17784200  0.35568300  0.76562600  1
  C  C50  1  0.12799900  0.41216500  0.50000000  1
  C  C51  1  0.87200100  0.58783500  0.50000000  1
  C  C52  1  0.58783500  0.71583400  0.50000000  1
  C  C53  1  0.28416600  0.87200100  0.50000000  1
  C  C54  1  0.71583400  0.12799900  0.50000000  1
  C  C55  1  0.41216500  0.28416600  0.50000000  1
  C  C56  1  0.71583400  0.58783500  0.50000000  1
  C  C57  1  0.87200100  0.28416600  0.50000000  1
  C  C58  1  0.41216500  0.12799900  0.50000000  1
  C  C59  1  0.58783500  0.87200100  0.50000000  1
  C  C60  1  0.12799900  0.71583400  0.50000000  1
  C  C61  1  0.28416600  0.41216500  0.50000000  1
  C  C62  1  0.50000000  0.00000000  0.26031500  1
  C  C63  1  0.00000000  0.50000000  0.26031500  1
  C  C64  1  0.50000000  0.50000000  0.26031500  1
  C  C65  1  0.50000000  0.00000000  0.73968500  1
  C  C66  1  0.50000000  0.50000000  0.73968500  1
  C  C67  1  0.00000000  0.50000000  0.73968500  1
  C  C68  1  0.38567200  0.00000000  0.00000000  1
  C  C69  1  0.61432800  0.00000000  0.00000000  1
  C  C70  1  0.00000000  0.38567200  0.00000000  1
  C  C71  1  0.61432800  0.61432800  0.00000000  1
  C  C72  1  0.38567200  0.38567200  0.00000000  1
  C  C73  1  0.00000000  0.61432800  0.00000000  1
  C  C74  1  0.16002600  0.00000000  0.00000000  1
  C  C75  1  0.83997400  0.00000000  0.00000000  1
  C  C76  1  0.00000000  0.16002600  0.00000000  1
  C  C77  1  0.83997400  0.83997400  0.00000000  1
  C  C78  1  0.16002600  0.16002600  0.00000000  1
  C  C79  1  0.00000000  0.83997400  0.00000000  1
  C  C80  1  0.14462500  0.00000000  0.50000000  1
  C  C81  1  0.85537500  0.00000000  0.50000000  1
  C  C82  1  0.00000000  0.14462500  0.50000000  1
  C  C83  1  0.85537500  0.85537500  0.50000000  1
  C  C84  1  0.14462500  0.14462500  0.50000000  1
  C  C85  1  0.00000000  0.85537500  0.50000000  1
  C  C86  1  0.33333300  0.66666700  0.50000000  1
  C  C87  1  0.66666700  0.33333300  0.50000000  1
  Cu  Cu88  1  0.33333300  0.66666700  0.00000000  1
  Cu  Cu89  1  0.66666700  0.33333300  0.00000000  1
  Cu  Cu90  1  0.08458500  0.31879400  0.00000000  1
  Cu  Cu91  1  0.91541500  0.68120600  0.00000000  1
  Cu  Cu92  1  0.68120600  0.76579200  0.00000000  1
  Cu  Cu93  1  0.23420800  0.91541500  0.00000000  1
  Cu  Cu94  1  0.76579200  0.08458500  0.00000000  1
  Cu  Cu95  1  0.31879400  0.23420800  0.00000000  1
  Cu  Cu96  1  0.76579200  0.68120600  0.00000000  1
  Cu  Cu97  1  0.91541500  0.23420800  0.00000000  1
  Cu  Cu98  1  0.31879400  0.08458500  0.00000000  1
  Cu  Cu99  1  0.68120600  0.91541500  0.00000000  1
  Cu  Cu100  1  0.08458500  0.76579200  0.00000000  1
  Cu  Cu101  1  0.23420800  0.31879400  0.00000000  1
  Cu  Cu102  1  0.08930700  0.17861400  0.23868500  1
  Cu  Cu103  1  0.91069300  0.82138600  0.23868500  1
  Cu  Cu104  1  0.82138600  0.91069300  0.23868500  1
  Cu  Cu105  1  0.08930700  0.91069300  0.23868500  1
  Cu  Cu106  1  0.91069300  0.08930700  0.23868500  1
  Cu  Cu107  1  0.17861400  0.08930700  0.23868500  1
  Cu  Cu108  1  0.91069300  0.82138600  0.76131500  1
  Cu  Cu109  1  0.91069300  0.08930700  0.76131500  1
  Cu  Cu110  1  0.17861400  0.08930700  0.76131500  1
  Cu  Cu111  1  0.82138600  0.91069300  0.76131500  1
  Cu  Cu112  1  0.08930700  0.91069300  0.76131500  1
  Cu  Cu113  1  0.08930700  0.17861400  0.76131500  1
  Cu  Cu114  1  0.10544900  0.44664400  0.22442300  1
  Cu  Cu115  1  0.89455100  0.55335600  0.22442300  1
  Cu  Cu116  1  0.55335600  0.65880500  0.22442300  1
  Cu  Cu117  1  0.34119500  0.89455100  0.22442300  1
  Cu  Cu118  1  0.65880500  0.10544900  0.22442300  1
  Cu  Cu119  1  0.44664400  0.34119500  0.22442300  1
  Cu  Cu120  1  0.65880500  0.55335600  0.77557700  1
  Cu  Cu121  1  0.89455100  0.34119500  0.77557700  1
  Cu  Cu122  1  0.44664400  0.10544900  0.77557700  1
  Cu  Cu123  1  0.55335600  0.89455100  0.77557700  1
  Cu  Cu124  1  0.10544900  0.65880500  0.77557700  1
  Cu  Cu125  1  0.34119500  0.44664400  0.77557700  1
  Cu  Cu126  1  0.89455100  0.55335600  0.77557700  1
  Cu  Cu127  1  0.10544900  0.44664400  0.77557700  1
  Cu  Cu128  1  0.44664400  0.34119500  0.77557700  1
  Cu  Cu129  1  0.65880500  0.10544900  0.77557700  1
  Cu  Cu130  1  0.34119500  0.89455100  0.77557700  1
  Cu  Cu131  1  0.55335600  0.65880500  0.77557700  1
  Cu  Cu132  1  0.34119500  0.44664400  0.22442300  1
  Cu  Cu133  1  0.10544900  0.65880500  0.22442300  1
  Cu  Cu134  1  0.55335600  0.89455100  0.22442300  1
  Cu  Cu135  1  0.44664400  0.10544900  0.22442300  1
  Cu  Cu136  1  0.89455100  0.34119500  0.22442300  1
  Cu  Cu137  1  0.65880500  0.55335600  0.22442300  1
  Cu  Cu138  1  0.54339300  0.08678600  0.00000000  1
  Cu  Cu139  1  0.45660700  0.91321400  0.00000000  1
  Cu  Cu140  1  0.91321400  0.45660700  0.00000000  1
  Cu  Cu141  1  0.54339300  0.45660700  0.00000000  1
  Cu  Cu142  1  0.45660700  0.54339300  0.00000000  1
  Cu  Cu143  1  0.08678600  0.54339300  0.00000000  1
  Cu  Cu144  1  0.41940600  0.00000000  0.50000000  1
  Cu  Cu145  1  0.58059400  0.00000000  0.50000000  1
  Cu  Cu146  1  0.00000000  0.41940600  0.50000000  1
  Cu  Cu147  1  0.58059400  0.58059400  0.50000000  1
  Cu  Cu148  1  0.41940600  0.41940600  0.50000000  1
  Cu  Cu149  1  0.00000000  0.58059400  0.50000000  1
  Cu  Cu150  1  0.26229800  0.52459600  0.34478900  1
  Cu  Cu151  1  0.73770200  0.47540400  0.34478900  1
  Cu  Cu152  1  0.47540400  0.73770200  0.34478900  1
  Cu  Cu153  1  0.26229800  0.73770200  0.34478900  1
  Cu  Cu154  1  0.73770200  0.26229800  0.34478900  1
  Cu  Cu155  1  0.52459600  0.26229800  0.34478900  1
  Cu  Cu156  1  0.73770200  0.47540400  0.65521100  1
  Cu  Cu157  1  0.73770200  0.26229800  0.65521100  1
  Cu  Cu158  1  0.52459600  0.26229800  0.65521100  1
  Cu  Cu159  1  0.47540400  0.73770200  0.65521100  1
  Cu  Cu160  1  0.26229800  0.73770200  0.65521100  1
  Cu  Cu161  1  0.26229800  0.52459600  0.65521100  1
  Cu  Cu162  1  0.14229300  0.28458600  0.50000000  1
  Cu  Cu163  1  0.85770700  0.71541400  0.50000000  1
  Cu  Cu164  1  0.71541400  0.85770700  0.50000000  1
  Cu  Cu165  1  0.14229300  0.85770700  0.50000000  1
  Cu  Cu166  1  0.85770700  0.14229300  0.50000000  1
  Cu  Cu167  1  0.28458600  0.14229300  0.50000000  1
