# generated using pymatgen
data_CuNi3C10
_symmetry_space_group_name_H-M   'P 1'
_cell_length_a   8.64159000
_cell_length_b   8.60673306
_cell_length_c   8.00646440
_cell_angle_alpha   90.02340004
_cell_angle_beta   89.97535303
_cell_angle_gamma   90.13354575
_symmetry_Int_Tables_number   1
_chemical_formula_structural   CuNi3C10
_chemical_formula_sum   'Cu4 Ni12 C40'
_cell_volume   595.48594000
_cell_formula_units_Z   4
loop_
 _symmetry_equiv_pos_site_id
 _symmetry_equiv_pos_as_xyz
  1  'x, y, z'
loop_
 _atom_site_type_symbol
 _atom_site_label
 _atom_site_symmetry_multiplicity
 _atom_site_fract_x
 _atom_site_fract_y
 _atom_site_fract_z
 _atom_site_occupancy
  C  C0  1  0.00118000  0.99917300  0.00359300  1
  C  C1  1  0.25137400  0.24782100  0.24666500  1
  C  C2  1  0.24817300  0.75232000  0.74681900  1
  C  C3  1  0.49887300  0.00056500  0.50382800  1
  C  C4  1  0.50136600  0.50113900  0.99688600  1
  C  C5  1  0.75128600  0.25265700  0.75298300  1
  C  C6  1  0.74855600  0.74758500  0.25321900  1
  C  C7  1  0.99889000  0.49860300  0.49671800  1
  Ni  Ni8  1  0.12367500  0.12574400  0.62531900  1
  Ni  Ni9  1  0.12077800  0.37709400  0.88064100  1
  Ni  Ni10  1  0.12733800  0.63000700  0.12947600  1
  Ni  Ni11  1  0.37243500  0.37019600  0.62937500  1
  Ni  Ni12  1  0.37942500  0.62281200  0.38062200  1
  Ni  Ni13  1  0.37589600  0.87424300  0.12491100  1
  Ni  Ni14  1  0.62409600  0.37486200  0.37444200  1
  Ni  Ni15  1  0.62039900  0.12303400  0.12038600  1
  Ni  Ni16  1  0.62769600  0.86989300  0.86996600  1
  Ni  Ni17  1  0.87245400  0.12976300  0.37030000  1
  Ni  Ni18  1  0.87976200  0.87655900  0.62003900  1
  Ni  Ni19  1  0.87643700  0.62549300  0.87473200  1
  Cu  Cu20  1  0.12886400  0.87925100  0.37463400  1
  Cu  Cu21  1  0.37130100  0.12110900  0.87442900  1
  Cu  Cu22  1  0.62859300  0.62027600  0.62574400  1
  Cu  Cu23  1  0.87100100  0.37946000  0.12523400  1
  C  C24  1  0.10129100  0.12913900  0.38906700  1
  C  C25  1  0.10925400  0.89611400  0.62284100  1
  C  C26  1  0.11406900  0.61222000  0.88619400  1
  C  C27  1  0.11949500  0.14742200  0.86014300  1
  C  C28  1  0.12820400  0.39208700  0.10721100  1
  C  C29  1  0.13859100  0.36356700  0.63545200  1
  C  C30  1  0.14242100  0.62403600  0.35701000  1
  C  C31  1  0.14681100  0.86020600  0.12588800  1
  C  C32  1  0.35302700  0.14029900  0.62604000  1
  C  C33  1  0.35737900  0.37624100  0.85724200  1
  C  C34  1  0.36150000  0.63636500  0.13523900  1
  C  C35  1  0.37035800  0.60819400  0.60681300  1
  C  C36  1  0.38054000  0.85268200  0.35972300  1
  C  C37  1  0.38607000  0.38780800  0.38595100  1
  C  C38  1  0.39084400  0.10384300  0.12285100  1
  C  C39  1  0.39873000  0.87062600  0.88895200  1
  C  C40  1  0.60196000  0.37156900  0.61118600  1
  C  C41  1  0.60831700  0.60409200  0.37718600  1
  C  C42  1  0.61384500  0.88752500  0.11434200  1
  C  C43  1  0.61919700  0.35271600  0.13994200  1
  C  C44  1  0.62796800  0.10695400  0.89320400  1
  C  C45  1  0.63800200  0.13587200  0.36418100  1
  C  C46  1  0.64313800  0.87402700  0.64237500  1
  C  C47  1  0.64712500  0.63991700  0.87364400  1
  C  C48  1  0.85291100  0.35994400  0.37357100  1
  C  C49  1  0.85778800  0.12470700  0.14284500  1
  C  C50  1  0.86179600  0.86415900  0.86450500  1
  C  C51  1  0.87214900  0.89264100  0.39304300  1
  C  C52  1  0.88161300  0.64795100  0.64000800  1
  C  C53  1  0.88621400  0.11235400  0.61449500  1
  C  C54  1  0.89162400  0.39609900  0.87704200  1
  C  C55  1  0.89792200  0.62910600  0.11099200  1
