# generated using pymatgen
data_Cu2NiC26
_symmetry_space_group_name_H-M   'P 1'
_cell_length_a   7.34385751
_cell_length_b   7.34385751
_cell_length_c   10.87228913
_cell_angle_alpha   77.62830435
_cell_angle_beta   77.62830435
_cell_angle_gamma   35.27384616
_symmetry_Int_Tables_number   1
_chemical_formula_structural   Cu2NiC26
_chemical_formula_sum   'Cu2 Ni1 C26'
_cell_volume   329.94957861
_cell_formula_units_Z   1
loop_
 _symmetry_equiv_pos_site_id
 _symmetry_equiv_pos_as_xyz
  1  'x, y, z'
loop_
 _atom_site_type_symbol
 _atom_site_label
 _atom_site_symmetry_multiplicity
 _atom_site_fract_x
 _atom_site_fract_y
 _atom_site_fract_z
 _atom_site_occupancy
  Ni  Ni0  1  0.54038100  0.45961900  0.00000000  1
  Cu  Cu1  1  0.20338900  0.17240800  0.45641900  1
  Cu  Cu2  1  0.82759200  0.79661100  0.54358100  1
  C  C3  1  0.81072200  0.70486800  0.07749600  1
  C  C4  1  0.29513200  0.18927800  0.92250400  1
  C  C5  1  0.67846000  0.60084200  0.29691900  1
  C  C6  1  0.39915800  0.32154000  0.70308100  1
  C  C7  1  0.04951600  0.96963900  0.36479700  1
  C  C8  1  0.03036100  0.95048400  0.63520300  1
  C  C9  1  0.85332100  0.81160700  0.27526400  1
  C  C10  1  0.18839300  0.14667900  0.72473600  1
  C  C11  1  0.20856200  0.11091100  0.16368200  1
  C  C12  1  0.88908900  0.79143800  0.83631800  1
  C  C13  1  0.54583700  0.45416300  0.50000000  1
  C  C14  1  0.90415800  0.42354400  0.16575700  1
  C  C15  1  0.57645600  0.09584200  0.83424300  1
  C  C16  1  0.42086400  0.00457100  0.06195600  1
  C  C17  1  0.99542900  0.57913600  0.93804400  1
  C  C18  1  0.74666100  0.72598500  0.35519100  1
  C  C19  1  0.27401500  0.25333900  0.64480900  1
  C  C20  1  0.23673600  0.76326400  0.50000000  1
  C  C21  1  0.75696800  0.34837400  0.39804100  1
  C  C22  1  0.65162600  0.24303200  0.60195900  1
  C  C23  1  0.30313500  0.90118400  0.26477200  1
  C  C24  1  0.09881600  0.69686500  0.73522800  1
  C  C25  1  0.88737000  0.80398900  0.14684600  1
  C  C26  1  0.19601100  0.11263000  0.85315400  1
  C  C27  1  0.91788300  0.89759600  0.33583200  1
  C  C28  1  0.10240400  0.08211700  0.66416800  1
