# generated using pymatgen
data_Cu(NiC)2
_symmetry_space_group_name_H-M   'P 1'
_cell_length_a   10.47899718
_cell_length_b   10.47899718
_cell_length_c   10.47899696
_cell_angle_alpha   22.87566086
_cell_angle_beta   22.87566086
_cell_angle_gamma   22.87566443
_symmetry_Int_Tables_number   1
_chemical_formula_structural   Cu(NiC)2
_chemical_formula_sum   'Cu1 Ni2 C2'
_cell_volume   152.58790467
_cell_formula_units_Z   1
loop_
 _symmetry_equiv_pos_site_id
 _symmetry_equiv_pos_as_xyz
  1  'x, y, z'
loop_
 _atom_site_type_symbol
 _atom_site_label
 _atom_site_symmetry_multiplicity
 _atom_site_fract_x
 _atom_site_fract_y
 _atom_site_fract_z
 _atom_site_occupancy
  Ni  Ni0  1  0.38942300  0.38942300  0.38942300  1
  Ni  Ni1  1  0.60224700  0.60224700  0.60224700  1
  Cu  Cu2  1  0.21062800  0.21062800  0.21062800  1
  C  C3  1  0.99632600  0.99632600  0.99632600  1
  C  C4  1  0.77227500  0.77227500  0.77227500  1
