# generated using pymatgen
data_Cu2NiC
_symmetry_space_group_name_H-M   'P 1'
_cell_length_a   3.95588600
_cell_length_b   3.99581800
_cell_length_c   8.31412213
_cell_angle_alpha   76.09557203
_cell_angle_beta   90.00000000
_cell_angle_gamma   90.00000000
_symmetry_Int_Tables_number   1
_chemical_formula_structural   Cu2NiC
_chemical_formula_sum   'Cu4 Ni2 C2'
_cell_volume   127.57041322
_cell_formula_units_Z   2
loop_
 _symmetry_equiv_pos_site_id
 _symmetry_equiv_pos_as_xyz
  1  'x, y, z'
loop_
 _atom_site_type_symbol
 _atom_site_label
 _atom_site_symmetry_multiplicity
 _atom_site_fract_x
 _atom_site_fract_y
 _atom_site_fract_z
 _atom_site_occupancy
  C  C0  1  0.25000000  0.10748700  0.78502600  1
  C  C1  1  0.75000000  0.89251300  0.21497400  1
  Ni  Ni2  1  0.25000000  0.32104300  0.35791400  1
  Ni  Ni3  1  0.75000000  0.67895700  0.64208600  1
  Cu  Cu4  1  0.75000000  0.24987800  0.50024400  1
  Cu  Cu5  1  0.25000000  0.75012200  0.49975600  1
  Cu  Cu6  1  0.75000000  0.54236300  0.91527400  1
  Cu  Cu7  1  0.25000000  0.45763700  0.08472600  1
