# generated using pymatgen
data_Cu3Ni4
_symmetry_space_group_name_H-M   'P 1'
_cell_length_a   12.36111152
_cell_length_b   12.36111152
_cell_length_c   12.36111131
_cell_angle_alpha   18.85478067
_cell_angle_beta   18.85478067
_cell_angle_gamma   18.85477971
_symmetry_Int_Tables_number   1
_chemical_formula_structural   Cu3Ni4
_chemical_formula_sum   'Cu3 Ni4'
_cell_volume   172.37242462
_cell_formula_units_Z   1
loop_
 _symmetry_equiv_pos_site_id
 _symmetry_equiv_pos_as_xyz
  1  'x, y, z'
loop_
 _atom_site_type_symbol
 _atom_site_label
 _atom_site_symmetry_multiplicity
 _atom_site_fract_x
 _atom_site_fract_y
 _atom_site_fract_z
 _atom_site_occupancy
  Ni  Ni0  1  0.94632000  0.94632000  0.94632000  1
  Ni  Ni1  1  0.05368000  0.05368000  0.05368000  1
  Ni  Ni2  1  0.20456000  0.20456000  0.20456000  1
  Ni  Ni3  1  0.79544000  0.79544000  0.79544000  1
  Cu  Cu4  1  0.50000000  0.50000000  0.50000000  1
  Cu  Cu5  1  0.64633800  0.64633800  0.64633800  1
  Cu  Cu6  1  0.35366200  0.35366200  0.35366200  1
