# generated using pymatgen
data_CuNiC
_symmetry_space_group_name_H-M   'P 1'
_cell_length_a   4.54708500
_cell_length_b   7.66810300
_cell_length_c   8.50153300
_cell_angle_alpha   90.00000000
_cell_angle_beta   90.00000000
_cell_angle_gamma   90.00000000
_symmetry_Int_Tables_number   1
_chemical_formula_structural   CuNiC
_chemical_formula_sum   'Cu4 Ni4 C4'
_cell_volume   296.42733901
_cell_formula_units_Z   4
loop_
 _symmetry_equiv_pos_site_id
 _symmetry_equiv_pos_as_xyz
  1  'x, y, z'
loop_
 _atom_site_type_symbol
 _atom_site_label
 _atom_site_symmetry_multiplicity
 _atom_site_fract_x
 _atom_site_fract_y
 _atom_site_fract_z
 _atom_site_occupancy
  C  C0  1  0.25000000  0.98257700  0.68219400  1
  C  C1  1  0.25000000  0.48257700  0.81780600  1
  C  C2  1  0.75000000  0.51742300  0.18219400  1
  C  C3  1  0.75000000  0.01742300  0.31780600  1
  Ni  Ni4  1  0.75000000  0.64438500  0.56436000  1
  Ni  Ni5  1  0.75000000  0.14438500  0.93564000  1
  Ni  Ni6  1  0.25000000  0.85561500  0.06436000  1
  Ni  Ni7  1  0.25000000  0.35561500  0.43564000  1
  Cu  Cu8  1  0.75000000  0.27374100  0.61228300  1
  Cu  Cu9  1  0.75000000  0.77374100  0.88771700  1
  Cu  Cu10  1  0.25000000  0.22625900  0.11228300  1
  Cu  Cu11  1  0.25000000  0.72625900  0.38771700  1
