# generated using pymatgen
data_Cu20NiC76
_symmetry_space_group_name_H-M   'P 1'
_cell_length_a   9.04703500
_cell_length_b   11.17419429
_cell_length_c   12.89305146
_cell_angle_alpha   104.65034199
_cell_angle_beta   90.02144639
_cell_angle_gamma   113.87557878
_symmetry_Int_Tables_number   1
_chemical_formula_structural   Cu20NiC76
_chemical_formula_sum   'Cu20 Ni1 C76'
_cell_volume   1145.31160577
_cell_formula_units_Z   1
loop_
 _symmetry_equiv_pos_site_id
 _symmetry_equiv_pos_as_xyz
  1  'x, y, z'
loop_
 _atom_site_type_symbol
 _atom_site_label
 _atom_site_symmetry_multiplicity
 _atom_site_fract_x
 _atom_site_fract_y
 _atom_site_fract_z
 _atom_site_occupancy
  C  C0  1  0.70109800  0.89967700  0.05107100  1
  C  C1  1  0.49932300  0.50042100  0.25066400  1
  C  C2  1  0.29878800  0.10154600  0.45057600  1
  C  C3  1  0.69352800  0.89960500  0.54973100  1
  C  C4  1  0.09679700  0.69837100  0.64803500  1
  C  C5  1  0.89980900  0.30090400  0.84992900  1
  C  C6  1  0.29974200  0.10118300  0.95113100  1
  C  C7  1  0.05823100  0.89494400  0.05207600  1
  C  C8  1  0.74895200  0.69875000  0.15169500  1
  C  C9  1  0.86176100  0.50026800  0.25083600  1
  C  C10  1  0.54989600  0.30255100  0.35058300  1
  C  C11  1  0.65985000  0.10319000  0.44835600  1
  C  C12  1  0.45571400  0.69702200  0.65142000  1
  C  C13  1  0.14651000  0.49978100  0.75010200  1
  C  C14  1  0.26202800  0.30441700  0.84780100  1
  C  C15  1  0.94570800  0.09892000  0.94879600  1
  Ni  Ni16  1  0.34878900  0.89975700  0.54937700  1
  Cu  Cu17  1  0.59798100  0.36963600  0.01669500  1
  Cu  Cu18  1  0.12766800  0.42639600  0.08075300  1
  Cu  Cu19  1  0.67289800  0.17167000  0.11676300  1
  Cu  Cu20  1  0.20004300  0.22750800  0.18301300  1
  Cu  Cu21  1  0.93244600  0.02590600  0.28277900  1
  Cu  Cu22  1  0.40096600  0.97380000  0.21946200  1
  Cu  Cu23  1  0.47037800  0.77240400  0.31797300  1
  Cu  Cu24  1  0.00458800  0.82702900  0.38601300  1
  Cu  Cu25  1  0.19948100  0.57722800  0.41812500  1
  Cu  Cu26  1  0.72818500  0.63085900  0.48449800  1
  Cu  Cu27  1  0.26839800  0.37232400  0.51620400  1
  Cu  Cu28  1  0.79632200  0.42821500  0.58396700  1
  Cu  Cu29  1  0.99799600  0.17022900  0.61618200  1
  Cu  Cu30  1  0.52288300  0.22251700  0.68131300  1
  Cu  Cu31  1  0.60055800  0.02749700  0.78104500  1
  Cu  Cu32  1  0.07996100  0.97325000  0.71470200  1
  Cu  Cu33  1  0.80618200  0.77383800  0.81721100  1
  Cu  Cu34  1  0.32780800  0.82962400  0.88245200  1
  Cu  Cu35  1  0.86754900  0.56922000  0.91523800  1
  Cu  Cu36  1  0.39870200  0.63026700  0.98454800  1
  C  C37  1  0.61931200  0.23267200  0.02611600  1
  C  C38  1  0.13952600  0.11049100  0.06510000  1
  C  C39  1  0.80562500  0.11424800  0.07013800  1
  C  C40  1  0.58800400  0.68534400  0.03184400  1
  C  C41  1  0.91797900  0.68774600  0.03111700  1
  C  C42  1  0.28537800  0.56375200  0.07384100  1
  C  C43  1  0.51616200  0.03527200  0.12952900  1
  C  C44  1  0.97937500  0.46426700  0.12260400  1
  C  C45  1  0.65809200  0.48761600  0.13429200  1
  C  C46  1  0.17984600  0.36364100  0.17017700  1
  C  C47  1  0.39005700  0.28566700  0.22958100  1
  C  C48  1  0.87588800  0.90886400  0.16497000  1
  C  C49  1  0.72065800  0.29048900  0.23225100  1
  C  C50  1  0.21482900  0.93417700  0.17831400  1
  C  C51  1  0.08574300  0.16322400  0.27183200  1
  C  C52  1  0.42328100  0.83867400  0.22986900  1
  C  C53  1  0.78233700  0.05972000  0.32651000  1
  C  C54  1  0.93226600  0.70980900  0.26991300  1
  C  C55  1  0.46376800  0.09114100  0.33735500  1
  C  C56  1  0.60823800  0.72019600  0.27421000  1
  C  C57  1  0.31428500  0.63412000  0.32643200  1
  C  C58  1  0.67042000  0.51402800  0.36662300  1
  C  C59  1  0.01268100  0.53785300  0.37901500  1
  C  C60  1  0.99403800  0.96749900  0.37261200  1
  C  C61  1  0.22522900  0.44390700  0.43009500  1
  C  C62  1  0.73025300  0.31036500  0.46752400  1
  C  C63  1  0.40142500  0.31514700  0.46993900  1
  C  C64  1  0.19531100  0.88406400  0.43268500  1
  C  C65  1  0.52128500  0.88822200  0.43730200  1
  C  C66  1  0.88860000  0.76774700  0.47643900  1
  C  C67  1  0.11109900  0.23601800  0.52746200  1
  C  C68  1  0.46779400  0.10262100  0.56424700  1
  C  C69  1  0.80753400  0.11101800  0.57072800  1
  C  C70  1  0.59565500  0.68870500  0.52988100  1
  C  C71  1  0.26471500  0.69699600  0.53545700  1
  C  C72  1  0.77532400  0.56461300  0.57303600  1
  C  C73  1  0.02336800  0.03515100  0.62684500  1
  C  C74  1  0.98662500  0.48541600  0.62991700  1
  C  C75  1  0.31945400  0.49026300  0.63282100  1
  C  C76  1  0.68201200  0.35615700  0.67013900  1
  C  C77  1  0.37525200  0.26279600  0.71963700  1
  C  C78  1  0.53421000  0.91136700  0.66209700  1
  C  C79  1  0.05730400  0.28768800  0.73389900  1
  C  C80  1  0.21178700  0.91491500  0.66659300  1
  C  C81  1  0.57910300  0.16485100  0.77326000  1
  C  C82  1  0.92737900  0.83431600  0.72854500  1
  C  C83  1  0.79078600  0.08027500  0.82466100  1
  C  C84  1  0.26957500  0.71164700  0.76476700  1
  C  C85  1  0.13386200  0.08899600  0.83303700  1
  C  C86  1  0.62239400  0.74108500  0.77379300  1
  C  C87  1  0.82208200  0.63525600  0.82521100  1
  C  C88  1  0.33056800  0.51186900  0.86836900  1
  C  C89  1  0.00278400  0.51421900  0.87019700  1
  C  C90  1  0.48585100  0.96375800  0.86966200  1
  C  C91  1  0.71201000  0.43297100  0.92733900  1
  C  C92  1  0.07378000  0.30925300  0.96259500  1
  C  C93  1  0.40838000  0.31435100  0.97081600  1
  C  C94  1  0.19538700  0.88630600  0.92870700  1
  C  C95  1  0.86669600  0.88998700  0.93558500  1
  C  C96  1  0.37990200  0.76645000  0.97135000  1
