# generated using pymatgen
data_CuNi3
_symmetry_space_group_name_H-M   'P 1'
_cell_length_a   7.43359141
_cell_length_b   7.43359141
_cell_length_c   7.43359141
_cell_angle_alpha   109.47122063
_cell_angle_beta   109.47122063
_cell_angle_gamma   109.47122063
_symmetry_Int_Tables_number   1
_chemical_formula_structural   CuNi3
_chemical_formula_sum   'Cu4 Ni12'
_cell_volume   316.20895690
_cell_formula_units_Z   4
loop_
 _symmetry_equiv_pos_site_id
 _symmetry_equiv_pos_as_xyz
  1  'x, y, z'
loop_
 _atom_site_type_symbol
 _atom_site_label
 _atom_site_symmetry_multiplicity
 _atom_site_fract_x
 _atom_site_fract_y
 _atom_site_fract_z
 _atom_site_occupancy
  Ni  Ni0  1  0.85345200  0.65157400  0.50502600  1
  Ni  Ni1  1  0.85345200  0.34842600  0.20187700  1
  Ni  Ni2  1  0.14654800  0.65157400  0.79812300  1
  Ni  Ni3  1  0.34842600  0.49497400  0.14654800  1
  Ni  Ni4  1  0.14654800  0.34842600  0.49497400  1
  Ni  Ni5  1  0.65157400  0.79812300  0.14654800  1
  Ni  Ni6  1  0.20187700  0.85345200  0.34842600  1
  Ni  Ni7  1  0.65157400  0.50502600  0.85345200  1
  Ni  Ni8  1  0.79812300  0.14654800  0.65157400  1
  Ni  Ni9  1  0.34842600  0.20187700  0.85345200  1
  Ni  Ni10  1  0.50502600  0.85345200  0.65157400  1
  Ni  Ni11  1  0.49497400  0.14654800  0.34842600  1
  Cu  Cu12  1  0.00000000  0.00000000  0.50000000  1
  Cu  Cu13  1  0.00000000  0.50000000  0.00000000  1
  Cu  Cu14  1  0.50000000  0.00000000  0.00000000  1
  Cu  Cu15  1  0.50000000  0.50000000  0.50000000  1
