# generated using pymatgen
data_Cu20Ni4C7
_symmetry_space_group_name_H-M   'P 1'
_cell_length_a   5.61619700
_cell_length_b   11.41531316
_cell_length_c   14.19182661
_cell_angle_alpha   90.73281389
_cell_angle_beta   93.26595183
_cell_angle_gamma   100.25887366
_symmetry_Int_Tables_number   1
_chemical_formula_structural   Cu20Ni4C7
_chemical_formula_sum   'Cu40 Ni8 C14'
_cell_volume   893.60384385
_cell_formula_units_Z   2
loop_
 _symmetry_equiv_pos_site_id
 _symmetry_equiv_pos_as_xyz
  1  'x, y, z'
loop_
 _atom_site_type_symbol
 _atom_site_label
 _atom_site_symmetry_multiplicity
 _atom_site_fract_x
 _atom_site_fract_y
 _atom_site_fract_z
 _atom_site_occupancy
  C  C0  1  0.85404400  0.76492400  0.42106300  1
  C  C1  1  0.14595600  0.23507600  0.57893700  1
  C  C2  1  0.23492000  0.76908600  0.24736100  1
  C  C3  1  0.76508000  0.23091400  0.75263900  1
  C  C4  1  0.25310300  0.46385900  0.41482600  1
  C  C5  1  0.74689700  0.53614100  0.58517400  1
  C  C6  1  0.28398600  0.04244400  0.10790400  1
  C  C7  1  0.71601400  0.95755600  0.89209600  1
  C  C8  1  0.65239900  0.77137100  0.09368400  1
  C  C9  1  0.34760100  0.22862900  0.90631600  1
  C  C10  1  0.50000000  0.00000000  0.50000000  1
  C  C11  1  0.00000000  0.50000000  0.00000000  1
  C  C12  1  0.25949400  0.70952500  0.75726100  1
  C  C13  1  0.74050600  0.29047500  0.24273900  1
  Ni  Ni14  1  0.30052000  0.43700200  0.74890900  1
  Ni  Ni15  1  0.69948000  0.56299800  0.25109100  1
  Ni  Ni16  1  0.31375200  0.71358900  0.50719000  1
  Ni  Ni17  1  0.68624800  0.28641100  0.49281000  1
  Ni  Ni18  1  0.14946800  0.79073800  0.99521100  1
  Ni  Ni19  1  0.85053200  0.20926200  0.00478900  1
  Ni  Ni20  1  0.77829500  0.97018200  0.25619700  1
  Ni  Ni21  1  0.22170500  0.02981800  0.74380300  1
  Cu  Cu22  1  0.96015000  0.64724400  0.70608300  1
  Cu  Cu23  1  0.03985000  0.35275600  0.29391700  1
  Cu  Cu24  1  0.55675300  0.77610700  0.80702300  1
  Cu  Cu25  1  0.44324700  0.22389300  0.19297700  1
  Cu  Cu26  1  0.23829100  0.50567000  0.83372200  1
  Cu  Cu27  1  0.76170900  0.49433000  0.16627800  1
  Cu  Cu28  1  0.40668900  0.53453100  0.68448000  1
  Cu  Cu29  1  0.59331100  0.46546900  0.31552000  1
  Cu  Cu30  1  0.77021500  0.95021500  0.36013000  1
  Cu  Cu31  1  0.22978500  0.04978500  0.63987000  1
  Cu  Cu32  1  0.84991600  0.10177200  0.24042100  1
  Cu  Cu33  1  0.15008400  0.89822800  0.75957900  1
  Cu  Cu34  1  0.37973300  0.76621200  0.60637500  1
  Cu  Cu35  1  0.62026700  0.23378800  0.39362500  1
  Cu  Cu36  1  0.50877300  0.64916200  0.48066600  1
  Cu  Cu37  1  0.49122700  0.35083800  0.51933400  1
  Cu  Cu38  1  0.07866100  0.63196800  0.50452500  1
  Cu  Cu39  1  0.92133900  0.36803200  0.49547500  1
  Cu  Cu40  1  0.10134900  0.71304700  0.90538200  1
  Cu  Cu41  1  0.89865100  0.28695300  0.09461800  1
  Cu  Cu42  1  0.07788100  0.36629000  0.70294200  1
  Cu  Cu43  1  0.92211900  0.63371000  0.29705800  1
  Cu  Cu44  1  0.53374800  0.92701700  0.20943400  1
  Cu  Cu45  1  0.46625200  0.07298300  0.79056600  1
  Cu  Cu46  1  0.29842600  0.81353300  0.44197700  1
  Cu  Cu47  1  0.70157400  0.18646700  0.55802300  1
  Cu  Cu48  1  0.47567800  0.35994900  0.77600200  1
  Cu  Cu49  1  0.52432200  0.64005100  0.22399800  1
  Cu  Cu50  1  0.95906200  0.86419900  0.99906900  1
  Cu  Cu51  1  0.04093800  0.13580100  0.00093100  1
  Cu  Cu52  1  0.13822800  0.70729700  0.07539700  1
  Cu  Cu53  1  0.86177200  0.29270300  0.92460300  1
  Cu  Cu54  1  0.95873300  0.90821300  0.21457900  1
  Cu  Cu55  1  0.04126700  0.09178700  0.78542100  1
  Cu  Cu56  1  0.39184300  0.86676500  0.99499100  1
  Cu  Cu57  1  0.60815700  0.13323500  0.00500900  1
  Cu  Cu58  1  0.84183600  0.90934000  0.56465500  1
  Cu  Cu59  1  0.15816400  0.09066000  0.43534500  1
  Cu  Cu60  1  0.64244300  0.59728400  0.96932200  1
  Cu  Cu61  1  0.35755700  0.40271600  0.03067800  1
