# generated using pymatgen
data_Cu3NiC6
_symmetry_space_group_name_H-M   'P 1'
_cell_length_a   3.22384500
_cell_length_b   6.18831149
_cell_length_c   6.18831149
_cell_angle_alpha   108.79848014
_cell_angle_beta   90.00000000
_cell_angle_gamma   90.00000000
_symmetry_Int_Tables_number   1
_chemical_formula_structural   Cu3NiC6
_chemical_formula_sum   'Cu3 Ni1 C6'
_cell_volume   116.87227714
_cell_formula_units_Z   1
loop_
 _symmetry_equiv_pos_site_id
 _symmetry_equiv_pos_as_xyz
  1  'x, y, z'
loop_
 _atom_site_type_symbol
 _atom_site_label
 _atom_site_symmetry_multiplicity
 _atom_site_fract_x
 _atom_site_fract_y
 _atom_site_fract_z
 _atom_site_occupancy
  Ni  Ni0  1  0.00000000  0.50000000  0.50000000  1
  Cu  Cu1  1  0.50000000  0.00000000  0.50000000  1
  Cu  Cu2  1  0.00000000  0.00000000  0.00000000  1
  Cu  Cu3  1  0.50000000  0.50000000  0.00000000  1
  C  C4  1  0.00000000  0.66186000  0.91685600  1
  C  C5  1  0.00000000  0.33814000  0.08314400  1
  C  C6  1  0.00000000  0.91685600  0.66186000  1
  C  C7  1  0.00000000  0.08314400  0.33814000  1
  C  C8  1  0.50000000  0.64892600  0.35107400  1
  C  C9  1  0.50000000  0.35107400  0.64892600  1
