# generated using pymatgen
data_CuNiC2
_symmetry_space_group_name_H-M   'P 1'
_cell_length_a   4.44602872
_cell_length_b   6.31595701
_cell_length_c   4.44817762
_cell_angle_alpha   90.00415822
_cell_angle_beta   89.97872763
_cell_angle_gamma   89.99599508
_symmetry_Int_Tables_number   1
_chemical_formula_structural   CuNiC2
_chemical_formula_sum   'Cu2 Ni2 C4'
_cell_volume   124.90893830
_cell_formula_units_Z   2
loop_
 _symmetry_equiv_pos_site_id
 _symmetry_equiv_pos_as_xyz
  1  'x, y, z'
loop_
 _atom_site_type_symbol
 _atom_site_label
 _atom_site_symmetry_multiplicity
 _atom_site_fract_x
 _atom_site_fract_y
 _atom_site_fract_z
 _atom_site_occupancy
  C  C0  1  0.00000800  0.99998300  0.00000600  1
  C  C1  1  0.50000800  0.49998400  0.50000600  1
  C  C2  1  0.99999400  0.50001800  0.99999300  1
  C  C3  1  0.49999400  0.00001700  0.49999300  1
  Ni  Ni4  1  0.50000100  0.25000000  0.00000200  1
  Ni  Ni5  1  0.00000100  0.75000100  0.50000000  1
  Cu  Cu6  1  0.00000100  0.25000100  0.50000000  1
  Cu  Cu7  1  0.50000100  0.75000100  0.00000000  1
