# generated using pymatgen
data_CuNiC
_symmetry_space_group_name_H-M   'P 1'
_cell_length_a   12.41739855
_cell_length_b   12.41739855
_cell_length_c   12.41739851
_cell_angle_alpha   19.12857971
_cell_angle_beta   19.12857971
_cell_angle_gamma   19.12858243
_symmetry_Int_Tables_number   1
_chemical_formula_structural   CuNiC
_chemical_formula_sum   'Cu2 Ni2 C2'
_cell_volume   179.70540932
_cell_formula_units_Z   2
loop_
 _symmetry_equiv_pos_site_id
 _symmetry_equiv_pos_as_xyz
  1  'x, y, z'
loop_
 _atom_site_type_symbol
 _atom_site_label
 _atom_site_symmetry_multiplicity
 _atom_site_fract_x
 _atom_site_fract_y
 _atom_site_fract_z
 _atom_site_occupancy
  Ni  Ni0  1  0.25471900  0.25471900  0.25471900  1
  Ni  Ni1  1  0.74528100  0.74528100  0.74528100  1
  Cu  Cu2  1  0.32234500  0.32234500  0.32234500  1
  Cu  Cu3  1  0.67765500  0.67765500  0.67765500  1
  C  C4  1  0.11336300  0.11336300  0.11336300  1
  C  C5  1  0.88663700  0.88663700  0.88663700  1
