# generated using pymatgen
data_Cu(NiC3)2
_symmetry_space_group_name_H-M   'P 1'
_cell_length_a   14.34236127
_cell_length_b   14.34236127
_cell_length_c   7.83089700
_cell_angle_alpha   90.00000000
_cell_angle_beta   90.00000000
_cell_angle_gamma   119.99999664
_symmetry_Int_Tables_number   1
_chemical_formula_structural   Cu(NiC3)2
_chemical_formula_sum   'Cu3 Ni6 C18'
_cell_volume   1395.02976393
_cell_formula_units_Z   3
loop_
 _symmetry_equiv_pos_site_id
 _symmetry_equiv_pos_as_xyz
  1  'x, y, z'
loop_
 _atom_site_type_symbol
 _atom_site_label
 _atom_site_symmetry_multiplicity
 _atom_site_fract_x
 _atom_site_fract_y
 _atom_site_fract_z
 _atom_site_occupancy
  Ni  Ni0  1  0.00000000  0.63684000  0.00000000  1
  Ni  Ni1  1  0.00000000  0.30544500  0.50000000  1
  Ni  Ni2  1  0.36316000  0.36316000  0.00000000  1
  Ni  Ni3  1  0.30544500  0.00000000  0.50000000  1
  Ni  Ni4  1  0.69455500  0.69455500  0.50000000  1
  Ni  Ni5  1  0.63684000  0.00000000  0.00000000  1
  Cu  Cu6  1  0.33333300  0.66666700  0.49213600  1
  Cu  Cu7  1  0.00000000  0.00000000  0.00000000  1
  Cu  Cu8  1  0.66666700  0.33333300  0.50786400  1
  C  C9  1  0.08512500  0.87602500  0.77076900  1
  C  C10  1  0.23396100  0.77266600  0.25235400  1
  C  C11  1  0.13108100  0.54291200  0.73588400  1
  C  C12  1  0.41183100  0.86891900  0.73588400  1
  C  C13  1  0.22733400  0.46129500  0.25235400  1
  C  C14  1  0.12397500  0.20910000  0.77076900  1
  C  C15  1  0.53870500  0.76603900  0.25235400  1
  C  C16  1  0.20910000  0.12397500  0.22923100  1
  C  C17  1  0.45708800  0.58816900  0.73588400  1
  C  C18  1  0.79090000  0.91487500  0.77076900  1
  C  C19  1  0.46129500  0.22733400  0.74764600  1
  C  C20  1  0.58816900  0.45708800  0.26411600  1
  C  C21  1  0.54291200  0.13108100  0.26411600  1
  C  C22  1  0.76603900  0.53870500  0.74764600  1
  C  C23  1  0.91487500  0.79090000  0.22923100  1
  C  C24  1  0.77266600  0.23396100  0.74764600  1
  C  C25  1  0.86891900  0.41183100  0.26411600  1
  C  C26  1  0.87602500  0.08512500  0.22923100  1
