# generated using pymatgen
data_Cu4NiC2
_symmetry_space_group_name_H-M   'P 1'
_cell_length_a   6.63912100
_cell_length_b   6.42476900
_cell_length_c   8.69949069
_cell_angle_alpha   72.01493991
_cell_angle_beta   90.00000000
_cell_angle_gamma   90.00000000
_symmetry_Int_Tables_number   1
_chemical_formula_structural   Cu4NiC2
_chemical_formula_sum   'Cu8 Ni2 C4'
_cell_volume   352.94337382
_cell_formula_units_Z   2
loop_
 _symmetry_equiv_pos_site_id
 _symmetry_equiv_pos_as_xyz
  1  'x, y, z'
loop_
 _atom_site_type_symbol
 _atom_site_label
 _atom_site_symmetry_multiplicity
 _atom_site_fract_x
 _atom_site_fract_y
 _atom_site_fract_z
 _atom_site_occupancy
  C  C0  1  0.97812700  0.72998700  0.06432100  1
  C  C1  1  0.47812700  0.27001300  0.93567900  1
  C  C2  1  0.49886000  0.23039800  0.45066000  1
  C  C3  1  0.99886000  0.76960200  0.54934000  1
  Ni  Ni4  1  0.46226500  0.78134300  0.32585400  1
  Ni  Ni5  1  0.96226500  0.21865700  0.67414600  1
  Cu  Cu6  1  0.46353500  0.58603200  0.17052800  1
  Cu  Cu7  1  0.22993300  0.02307800  0.27951200  1
  Cu  Cu8  1  0.72737100  0.97978800  0.29834700  1
  Cu  Cu9  1  0.90691000  0.42120800  0.43288200  1
  Cu  Cu10  1  0.40691000  0.57879200  0.56711800  1
  Cu  Cu11  1  0.22737100  0.02021200  0.70165300  1
  Cu  Cu12  1  0.72993300  0.97692200  0.72048800  1
  Cu  Cu13  1  0.96353500  0.41396800  0.82947200  1
