# generated using pymatgen
data_Cu6Ni6C7
_symmetry_space_group_name_H-M   'P 1'
_cell_length_a   13.18370200
_cell_length_b   7.44648400
_cell_length_c   7.95568919
_cell_angle_alpha   62.12139054
_cell_angle_beta   90.00000000
_cell_angle_gamma   90.00000000
_symmetry_Int_Tables_number   1
_chemical_formula_structural   Cu6Ni6C7
_chemical_formula_sum   'Cu12 Ni12 C14'
_cell_volume   690.38184623
_cell_formula_units_Z   2
loop_
 _symmetry_equiv_pos_site_id
 _symmetry_equiv_pos_as_xyz
  1  'x, y, z'
loop_
 _atom_site_type_symbol
 _atom_site_label
 _atom_site_symmetry_multiplicity
 _atom_site_fract_x
 _atom_site_fract_y
 _atom_site_fract_z
 _atom_site_occupancy
  C  C0  1  0.25000000  0.32244400  0.35407000  1
  C  C1  1  0.75000000  0.67755600  0.64593000  1
  C  C2  1  0.50000000  0.00000000  0.00000000  1
  C  C3  1  0.00000000  0.00000000  0.00000000  1
  Ni  Ni4  1  0.41833700  0.75666900  0.11617700  1
  Ni  Ni5  1  0.41844000  0.12570800  0.11744800  1
  Ni  Ni6  1  0.41954500  0.11752400  0.76638600  1
  Ni  Ni7  1  0.91833700  0.24333100  0.88382300  1
  Ni  Ni8  1  0.91844000  0.87429200  0.88255200  1
  Ni  Ni9  1  0.91954500  0.88247600  0.23361400  1
  Ni  Ni10  1  0.58166300  0.24333100  0.88382300  1
  Ni  Ni11  1  0.58156000  0.87429200  0.88255200  1
  Ni  Ni12  1  0.58045500  0.88247600  0.23361400  1
  Ni  Ni13  1  0.08166300  0.75666900  0.11617700  1
  Ni  Ni14  1  0.08156000  0.12570800  0.11744800  1
  Ni  Ni15  1  0.08045500  0.11752400  0.76638600  1
  Cu  Cu16  1  0.36723000  0.61190800  0.18947400  1
  Cu  Cu17  1  0.36750300  0.19616800  0.19164700  1
  Cu  Cu18  1  0.37112600  0.18757200  0.62675500  1
  Cu  Cu19  1  0.86723000  0.38809200  0.81052600  1
  Cu  Cu20  1  0.86750300  0.80383200  0.80835300  1
  Cu  Cu21  1  0.87112600  0.81242800  0.37324500  1
  Cu  Cu22  1  0.63277000  0.38809200  0.81052600  1
  Cu  Cu23  1  0.63249700  0.80383200  0.80835300  1
  Cu  Cu24  1  0.62887400  0.81242800  0.37324500  1
  Cu  Cu25  1  0.13277000  0.61190800  0.18947400  1
  Cu  Cu26  1  0.13249700  0.19616800  0.19164700  1
  Cu  Cu27  1  0.12887400  0.18757200  0.62675500  1
  C  C28  1  0.25000000  0.58032100  0.83663600  1
  C  C29  1  0.25000000  0.89069500  0.51360000  1
  C  C30  1  0.25000000  0.60146600  0.51060800  1
  C  C31  1  0.75000000  0.41967900  0.16336400  1
  C  C32  1  0.75000000  0.10930500  0.48640000  1
  C  C33  1  0.75000000  0.39853400  0.48939200  1
  C  C34  1  0.33275600  0.63382500  0.73043400  1
  C  C35  1  0.83275600  0.36617500  0.26956600  1
  C  C36  1  0.66724400  0.36617500  0.26956600  1
  C  C37  1  0.16724400  0.63382500  0.73043400  1
