# generated using pymatgen
data_Cu4NiC
_symmetry_space_group_name_H-M   'P 1'
_cell_length_a   10.86935400
_cell_length_b   5.50795200
_cell_length_c   10.66167519
_cell_angle_alpha   74.57787548
_cell_angle_beta   90.00000000
_cell_angle_gamma   90.00000000
_symmetry_Int_Tables_number   1
_chemical_formula_structural   Cu4NiC
_chemical_formula_sum   'Cu32 Ni8 C8'
_cell_volume   615.30878103
_cell_formula_units_Z   8
loop_
 _symmetry_equiv_pos_site_id
 _symmetry_equiv_pos_as_xyz
  1  'x, y, z'
loop_
 _atom_site_type_symbol
 _atom_site_label
 _atom_site_symmetry_multiplicity
 _atom_site_fract_x
 _atom_site_fract_y
 _atom_site_fract_z
 _atom_site_occupancy
  C  C0  1  0.16708200  0.26425000  0.84777900  1
  C  C1  1  0.66708200  0.73575000  0.65222100  1
  C  C2  1  0.33291800  0.26425000  0.34777900  1
  C  C3  1  0.83291800  0.73575000  0.15222100  1
  C  C4  1  0.02384500  0.84924800  0.39547500  1
  C  C5  1  0.52384500  0.15075200  0.10452500  1
  C  C6  1  0.47615500  0.84924800  0.89547500  1
  C  C7  1  0.97615500  0.15075200  0.60452500  1
  Ni  Ni8  1  0.68244000  0.32362000  0.99466800  1
  Ni  Ni9  1  0.18244000  0.67638000  0.50533200  1
  Ni  Ni10  1  0.54535700  0.78979700  0.31966100  1
  Ni  Ni11  1  0.95464300  0.78979700  0.81966100  1
  Ni  Ni12  1  0.04535700  0.21020300  0.18033900  1
  Ni  Ni13  1  0.45464300  0.21020300  0.68033900  1
  Ni  Ni14  1  0.81756000  0.32362000  0.49466800  1
  Ni  Ni15  1  0.31756000  0.67638000  0.00533200  1
  Cu  Cu16  1  0.78872000  0.44767200  0.59724300  1
  Cu  Cu17  1  0.50950200  0.44724500  0.69130700  1
  Cu  Cu18  1  0.18534900  0.50234300  0.63443700  1
  Cu  Cu19  1  0.68534900  0.49765700  0.86556300  1
  Cu  Cu20  1  0.00950200  0.55275500  0.80869300  1
  Cu  Cu21  1  0.65456100  0.85316200  0.23479000  1
  Cu  Cu22  1  0.57503700  0.77593100  0.45626100  1
  Cu  Cu23  1  0.04391000  0.75980400  0.48770900  1
  Cu  Cu24  1  0.28872000  0.55232800  0.90275700  1
  Cu  Cu25  1  0.75927500  0.10261100  0.00324100  1
  Cu  Cu26  1  0.95536400  0.99568400  0.23010100  1
  Cu  Cu27  1  0.45536400  0.00431600  0.26989900  1
  Cu  Cu28  1  0.25927500  0.89738900  0.49675900  1
  Cu  Cu29  1  0.84543900  0.85316200  0.73479000  1
  Cu  Cu30  1  0.54391000  0.24019600  0.01229100  1
  Cu  Cu31  1  0.07503700  0.22406900  0.04373900  1
  Cu  Cu32  1  0.92496300  0.77593100  0.95626100  1
  Cu  Cu33  1  0.45609000  0.75980400  0.98770900  1
  Cu  Cu34  1  0.15456100  0.14683800  0.26521000  1
  Cu  Cu35  1  0.74072500  0.10261100  0.50324100  1
  Cu  Cu36  1  0.54463600  0.99568400  0.73010100  1
  Cu  Cu37  1  0.04463600  0.00431600  0.76989900  1
  Cu  Cu38  1  0.24072500  0.89738900  0.99675900  1
  Cu  Cu39  1  0.71128000  0.44767200  0.09724300  1
  Cu  Cu40  1  0.95609000  0.24019600  0.51229100  1
  Cu  Cu41  1  0.42496300  0.22406900  0.54373900  1
  Cu  Cu42  1  0.34543900  0.14683800  0.76521000  1
  Cu  Cu43  1  0.99049800  0.44724500  0.19130700  1
  Cu  Cu44  1  0.31465100  0.50234300  0.13443700  1
  Cu  Cu45  1  0.81465100  0.49765700  0.36556300  1
  Cu  Cu46  1  0.49049800  0.55275500  0.30869300  1
  Cu  Cu47  1  0.21128000  0.55232800  0.40275700  1
