# generated using pymatgen
data_Cu5Ni2C
_symmetry_space_group_name_H-M   'P 1'
_cell_length_a   5.97942000
_cell_length_b   7.56830200
_cell_length_c   10.45625200
_cell_angle_alpha   90.00000000
_cell_angle_beta   90.00000000
_cell_angle_gamma   90.00000000
_symmetry_Int_Tables_number   1
_chemical_formula_structural   Cu5Ni2C
_chemical_formula_sum   'Cu20 Ni8 C4'
_cell_volume   473.18781716
_cell_formula_units_Z   4
loop_
 _symmetry_equiv_pos_site_id
 _symmetry_equiv_pos_as_xyz
  1  'x, y, z'
loop_
 _atom_site_type_symbol
 _atom_site_label
 _atom_site_symmetry_multiplicity
 _atom_site_fract_x
 _atom_site_fract_y
 _atom_site_fract_z
 _atom_site_occupancy
  C  C0  1  0.50000000  0.00000000  0.50000000  1
  C  C1  1  0.00000000  0.50000000  0.00000000  1
  C  C2  1  0.50000000  0.50000000  0.50000000  1
  C  C3  1  0.00000000  0.00000000  0.00000000  1
  Ni  Ni4  1  0.93192400  0.25000000  0.30537900  1
  Ni  Ni5  1  0.43192400  0.25000000  0.19462100  1
  Ni  Ni6  1  0.06807600  0.75000000  0.69462100  1
  Ni  Ni7  1  0.56807600  0.75000000  0.80537900  1
  Ni  Ni8  1  0.00976100  0.25000000  0.64356200  1
  Ni  Ni9  1  0.50976100  0.25000000  0.85643800  1
  Ni  Ni10  1  0.99023900  0.75000000  0.35643800  1
  Ni  Ni11  1  0.49023900  0.75000000  0.14356200  1
  Cu  Cu12  1  0.59282700  0.25000000  0.49231700  1
  Cu  Cu13  1  0.09282700  0.25000000  0.00768300  1
  Cu  Cu14  1  0.40717300  0.75000000  0.50768300  1
  Cu  Cu15  1  0.90717300  0.75000000  0.99231700  1
  Cu  Cu16  1  0.72617400  0.05286400  0.06356400  1
  Cu  Cu17  1  0.22617400  0.44713600  0.43643600  1
  Cu  Cu18  1  0.27382600  0.55286400  0.93643600  1
  Cu  Cu19  1  0.77382600  0.94713600  0.56356400  1
  Cu  Cu20  1  0.27382600  0.94713600  0.93643600  1
  Cu  Cu21  1  0.77382600  0.55286400  0.56356400  1
  Cu  Cu22  1  0.72617400  0.44713600  0.06356400  1
  Cu  Cu23  1  0.22617400  0.05286400  0.43643600  1
  Cu  Cu24  1  0.60619600  0.52909800  0.33780900  1
  Cu  Cu25  1  0.10619600  0.97090200  0.16219100  1
  Cu  Cu26  1  0.39380400  0.02909800  0.66219100  1
  Cu  Cu27  1  0.89380400  0.47090200  0.83780900  1
  Cu  Cu28  1  0.39380400  0.47090200  0.66219100  1
  Cu  Cu29  1  0.89380400  0.02909800  0.83780900  1
  Cu  Cu30  1  0.60619600  0.97090200  0.33780900  1
  Cu  Cu31  1  0.10619600  0.52909800  0.16219100  1
