# generated using pymatgen
data_Cu5NiC3
_symmetry_space_group_name_H-M   'P 1'
_cell_length_a   4.66180800
_cell_length_b   5.20234789
_cell_length_c   17.08588123
_cell_angle_alpha   90.23482185
_cell_angle_beta   90.21150942
_cell_angle_gamma   90.07005655
_symmetry_Int_Tables_number   1
_chemical_formula_structural   Cu5NiC3
_chemical_formula_sum   'Cu20 Ni4 C12'
_cell_volume   414.36609958
_cell_formula_units_Z   4
loop_
 _symmetry_equiv_pos_site_id
 _symmetry_equiv_pos_as_xyz
  1  'x, y, z'
loop_
 _atom_site_type_symbol
 _atom_site_label
 _atom_site_symmetry_multiplicity
 _atom_site_fract_x
 _atom_site_fract_y
 _atom_site_fract_z
 _atom_site_occupancy
  C  C0  1  0.01832600  0.75151600  0.62048400  1
  C  C1  1  0.99419600  0.24510600  0.38238100  1
  C  C2  1  0.49948000  0.74953100  0.12008800  1
  C  C3  1  0.50883800  0.23214000  0.88206500  1
  C  C4  1  0.02052000  0.27595000  0.71665500  1
  C  C5  1  0.97495900  0.75346500  0.94301300  1
  C  C6  1  0.99613600  0.25076100  0.04828900  1
  C  C7  1  0.96962900  0.76671300  0.28423600  1
  C  C8  1  0.50130200  0.75083000  0.78413500  1
  C  C9  1  0.51899000  0.75745400  0.44350000  1
  C  C10  1  0.51015100  0.23021700  0.21642300  1
  C  C11  1  0.50402800  0.25560000  0.54904900  1
  Ni  Ni12  1  0.73262200  0.93432700  0.20949300  1
  Ni  Ni13  1  0.77196600  0.89866400  0.37325100  1
  Ni  Ni14  1  0.72635800  0.88096200  0.87066200  1
  Ni  Ni15  1  0.24406200  0.56858100  0.71472000  1
  Cu  Cu16  1  0.77258500  0.91935900  0.03757200  1
  Cu  Cu17  1  0.76562700  0.40616400  0.96341000  1
  Cu  Cu18  1  0.73591900  0.41045600  0.79272300  1
  Cu  Cu19  1  0.76751500  0.41751300  0.62459200  1
  Cu  Cu20  1  0.73290700  0.40731100  0.12534200  1
  Cu  Cu21  1  0.76981600  0.93669700  0.70700700  1
  Cu  Cu22  1  0.76121100  0.41865200  0.29314900  1
  Cu  Cu23  1  0.72449100  0.92155500  0.53842300  1
  Cu  Cu24  1  0.72810500  0.41118100  0.46303700  1
  Cu  Cu25  1  0.28400300  0.58659300  0.53642900  1
  Cu  Cu26  1  0.28107800  0.09189900  0.46304700  1
  Cu  Cu27  1  0.23319500  0.08675800  0.29375600  1
  Cu  Cu28  1  0.25818900  0.09373100  0.12457800  1
  Cu  Cu29  1  0.25906700  0.58285300  0.87465300  1
  Cu  Cu30  1  0.24246300  0.09956800  0.62580800  1
  Cu  Cu31  1  0.23876000  0.59095400  0.37206600  1
  Cu  Cu32  1  0.26058400  0.56706100  0.21159800  1
  Cu  Cu33  1  0.26720100  0.07918400  0.79422000  1
  Cu  Cu34  1  0.21347100  0.08885500  0.96207600  1
  Cu  Cu35  1  0.21225300  0.58183900  0.03807000  1
