# generated using pymatgen
data_Cu3NiC12
_symmetry_space_group_name_H-M   'P 1'
_cell_length_a   8.12329370
_cell_length_b   8.12329370
_cell_length_c   8.12329359
_cell_angle_alpha   105.81140391
_cell_angle_beta   105.81140391
_cell_angle_gamma   105.81140120
_symmetry_Int_Tables_number   1
_chemical_formula_structural   Cu3NiC12
_chemical_formula_sum   'Cu6 Ni2 C24'
_cell_volume   460.12653177
_cell_formula_units_Z   2
loop_
 _symmetry_equiv_pos_site_id
 _symmetry_equiv_pos_as_xyz
  1  'x, y, z'
loop_
 _atom_site_type_symbol
 _atom_site_label
 _atom_site_symmetry_multiplicity
 _atom_site_fract_x
 _atom_site_fract_y
 _atom_site_fract_z
 _atom_site_occupancy
  C  C0  1  0.15610300  0.66496900  0.76270300  1
  C  C1  1  0.76270300  0.15610300  0.66496900  1
  C  C2  1  0.66496900  0.76270300  0.15610300  1
  C  C3  1  0.84389700  0.33503100  0.23729700  1
  C  C4  1  0.23729700  0.84389700  0.33503100  1
  C  C5  1  0.33503100  0.23729700  0.84389700  1
  Ni  Ni6  1  0.00000000  0.00000000  0.00000000  1
  Ni  Ni7  1  0.50000000  0.50000000  0.50000000  1
  Cu  Cu8  1  0.13495900  0.20800100  0.45044000  1
  Cu  Cu9  1  0.45044000  0.13495900  0.20800100  1
  Cu  Cu10  1  0.20800100  0.45044000  0.13495900  1
  Cu  Cu11  1  0.86504100  0.79199900  0.54956000  1
  Cu  Cu12  1  0.54956000  0.86504100  0.79199900  1
  Cu  Cu13  1  0.79199900  0.54956000  0.86504100  1
  C  C14  1  0.32302500  0.23650100  0.50171900  1
  C  C15  1  0.50171900  0.32302500  0.23650100  1
  C  C16  1  0.23650100  0.50171900  0.32302500  1
  C  C17  1  0.67697500  0.76349900  0.49828100  1
  C  C18  1  0.49828100  0.67697500  0.76349900  1
  C  C19  1  0.76349900  0.49828100  0.67697500  1
  C  C20  1  0.06997400  0.30072800  0.57165100  1
  C  C21  1  0.57165100  0.06997400  0.30072800  1
  C  C22  1  0.30072800  0.57165100  0.06997400  1
  C  C23  1  0.93002600  0.69927200  0.42834900  1
  C  C24  1  0.42834900  0.93002600  0.69927200  1
  C  C25  1  0.69927200  0.42834900  0.93002600  1
  C  C26  1  0.00772600  0.06849500  0.28219800  1
  C  C27  1  0.28219800  0.00772600  0.06849500  1
  C  C28  1  0.06849500  0.28219800  0.00772600  1
  C  C29  1  0.99227400  0.93150500  0.71780200  1
  C  C30  1  0.71780200  0.99227400  0.93150500  1
  C  C31  1  0.93150500  0.71780200  0.99227400  1
