# generated using pymatgen
data_CuNiC3
_symmetry_space_group_name_H-M   'P 1'
_cell_length_a   6.00855487
_cell_length_b   11.63919900
_cell_length_c   6.00846201
_cell_angle_alpha   90.00061039
_cell_angle_beta   60.00707279
_cell_angle_gamma   89.99906716
_symmetry_Int_Tables_number   1
_chemical_formula_structural   CuNiC3
_chemical_formula_sum   'Cu6 Ni6 C18'
_cell_volume   363.93013948
_cell_formula_units_Z   6
loop_
 _symmetry_equiv_pos_site_id
 _symmetry_equiv_pos_as_xyz
  1  'x, y, z'
loop_
 _atom_site_type_symbol
 _atom_site_label
 _atom_site_symmetry_multiplicity
 _atom_site_fract_x
 _atom_site_fract_y
 _atom_site_fract_z
 _atom_site_occupancy
  Ni  Ni0  1  0.99967900  0.50764400  0.33484600  1
  Ni  Ni1  1  0.66515900  0.50764600  0.00031900  1
  Ni  Ni2  1  0.66534200  0.00761300  0.33465400  1
  Ni  Ni3  1  0.33469500  0.50761200  0.66530500  1
  Ni  Ni4  1  0.00031000  0.00764600  0.66513800  1
  Ni  Ni5  1  0.33487100  0.00765400  0.99967400  1
  Cu  Cu6  1  0.00006700  0.23604400  0.99993500  1
  Cu  Cu7  1  0.99993600  0.73604000  0.00006300  1
  Cu  Cu8  1  0.66659000  0.26996900  0.66676200  1
  Cu  Cu9  1  0.33324800  0.26997200  0.33335800  1
  Cu  Cu10  1  0.33341900  0.76996500  0.33321700  1
  Cu  Cu11  1  0.66675100  0.76997100  0.66663400  1
  C  C12  1  0.00029700  0.53321600  0.99970100  1
  C  C13  1  0.99977000  0.03321500  0.00023300  1
  C  C14  1  0.66620800  0.49162700  0.66684800  1
  C  C15  1  0.33315000  0.49162700  0.33379400  1
  C  C16  1  0.33371300  0.99163000  0.33323700  1
  C  C17  1  0.66676500  0.99162900  0.66628500  1
  C  C18  1  0.31149000  0.34171700  0.68851000  1
  C  C19  1  0.99987800  0.34158600  0.31157900  1
  C  C20  1  0.68842300  0.34158600  0.00012200  1
  C  C21  1  0.68851800  0.84172200  0.31148400  1
  C  C22  1  0.00013100  0.84157900  0.68842200  1
  C  C23  1  0.31158000  0.84157400  0.99987100  1
  C  C24  1  0.64334900  0.17282000  0.35664900  1
  C  C25  1  0.00025000  0.17282000  0.64330900  1
  C  C26  1  0.35668900  0.17281400  0.99974900  1
  C  C27  1  0.35665800  0.67282700  0.64336300  1
  C  C28  1  0.99975900  0.67281800  0.35669200  1
  C  C29  1  0.64330900  0.67281600  0.00024500  1
