# generated using pymatgen
data_Cu8Ni2C3
_symmetry_space_group_name_H-M   'P 1'
_cell_length_a   9.29458500
_cell_length_b   5.88046100
_cell_length_c   12.59617400
_cell_angle_alpha   90.00000000
_cell_angle_beta   90.00000000
_cell_angle_gamma   90.00000000
_symmetry_Int_Tables_number   1
_chemical_formula_structural   Cu8Ni2C3
_chemical_formula_sum   'Cu32 Ni8 C12'
_cell_volume   688.46208645
_cell_formula_units_Z   4
loop_
 _symmetry_equiv_pos_site_id
 _symmetry_equiv_pos_as_xyz
  1  'x, y, z'
loop_
 _atom_site_type_symbol
 _atom_site_label
 _atom_site_symmetry_multiplicity
 _atom_site_fract_x
 _atom_site_fract_y
 _atom_site_fract_z
 _atom_site_occupancy
  C  C0  1  0.22760200  0.25000000  0.12909600  1
  C  C1  1  0.72760200  0.25000000  0.37090400  1
  C  C2  1  0.77239800  0.75000000  0.87090400  1
  C  C3  1  0.27239800  0.75000000  0.62909600  1
  C  C4  1  0.49568400  0.25000000  0.77145600  1
  C  C5  1  0.99568400  0.25000000  0.72854400  1
  C  C6  1  0.50431600  0.75000000  0.22854400  1
  C  C7  1  0.00431600  0.75000000  0.27145600  1
  C  C8  1  0.24639900  0.25000000  0.43501700  1
  C  C9  1  0.74639900  0.25000000  0.06498300  1
  C  C10  1  0.75360100  0.75000000  0.56498300  1
  C  C11  1  0.25360100  0.75000000  0.93501700  1
  Ni  Ni12  1  0.54900600  0.25000000  0.69332000  1
  Ni  Ni13  1  0.04900600  0.25000000  0.80668000  1
  Ni  Ni14  1  0.45099400  0.75000000  0.30668000  1
  Ni  Ni15  1  0.95099400  0.75000000  0.19332000  1
  Ni  Ni16  1  0.13189600  0.25000000  0.45738000  1
  Ni  Ni17  1  0.63189600  0.25000000  0.04262000  1
  Ni  Ni18  1  0.86810400  0.75000000  0.54262000  1
  Ni  Ni19  1  0.36810400  0.75000000  0.95738000  1
  Cu  Cu20  1  0.27504100  0.25000000  0.97732500  1
  Cu  Cu21  1  0.77504100  0.25000000  0.52267500  1
  Cu  Cu22  1  0.72495900  0.75000000  0.02267500  1
  Cu  Cu23  1  0.22495900  0.75000000  0.47732500  1
  Cu  Cu24  1  0.02501000  0.25000000  0.17033300  1
  Cu  Cu25  1  0.52501000  0.25000000  0.32966700  1
  Cu  Cu26  1  0.97499000  0.75000000  0.82966700  1
  Cu  Cu27  1  0.47499000  0.75000000  0.67033300  1
  Cu  Cu28  1  0.14094400  0.97255300  0.06795800  1
  Cu  Cu29  1  0.64094400  0.52744700  0.43204200  1
  Cu  Cu30  1  0.85905600  0.47255300  0.93204200  1
  Cu  Cu31  1  0.35905600  0.02744700  0.56795800  1
  Cu  Cu32  1  0.85905600  0.02744700  0.93204200  1
  Cu  Cu33  1  0.35905600  0.47255300  0.56795800  1
  Cu  Cu34  1  0.14094400  0.52744700  0.06795800  1
  Cu  Cu35  1  0.64094400  0.97255300  0.43204200  1
  Cu  Cu36  1  0.40009700  0.45557900  0.12132000  1
  Cu  Cu37  1  0.90009700  0.04442100  0.37868000  1
  Cu  Cu38  1  0.59990300  0.95557900  0.87868000  1
  Cu  Cu39  1  0.09990300  0.54442100  0.62132000  1
  Cu  Cu40  1  0.59990300  0.54442100  0.87868000  1
  Cu  Cu41  1  0.09990300  0.95557900  0.62132000  1
  Cu  Cu42  1  0.40009700  0.04442100  0.12132000  1
  Cu  Cu43  1  0.90009700  0.45557900  0.37868000  1
  Cu  Cu44  1  0.22514100  0.45495900  0.25619600  1
  Cu  Cu45  1  0.72514100  0.04504100  0.24380400  1
  Cu  Cu46  1  0.77485900  0.95495900  0.74380400  1
  Cu  Cu47  1  0.27485900  0.54504100  0.75619600  1
  Cu  Cu48  1  0.77485900  0.54504100  0.74380400  1
  Cu  Cu49  1  0.27485900  0.95495900  0.75619600  1
  Cu  Cu50  1  0.22514100  0.04504100  0.25619600  1
  Cu  Cu51  1  0.72514100  0.45495900  0.24380400  1
