# generated using pymatgen
data_Cu14Ni5C4
_symmetry_space_group_name_H-M   'P 1'
_cell_length_a   14.20413900
_cell_length_b   15.97037200
_cell_length_c   21.88733400
_cell_angle_alpha   90.00000000
_cell_angle_beta   90.00000000
_cell_angle_gamma   90.00000000
_symmetry_Int_Tables_number   1
_chemical_formula_structural   Cu14Ni5C4
_chemical_formula_sum   'Cu112 Ni40 C32'
_cell_volume   4965.04068093
_cell_formula_units_Z   8
loop_
 _symmetry_equiv_pos_site_id
 _symmetry_equiv_pos_as_xyz
  1  'x, y, z'
loop_
 _atom_site_type_symbol
 _atom_site_label
 _atom_site_symmetry_multiplicity
 _atom_site_fract_x
 _atom_site_fract_y
 _atom_site_fract_z
 _atom_site_occupancy
  C  C0  1  0.41231700  0.71729300  0.63169000  1
  C  C1  1  0.91231700  0.28270700  0.86831000  1
  C  C2  1  0.58768300  0.78270700  0.13169000  1
  C  C3  1  0.08768300  0.21729300  0.36831000  1
  C  C4  1  0.58768300  0.28270700  0.36831000  1
  C  C5  1  0.08768300  0.71729300  0.13169000  1
  C  C6  1  0.41231700  0.21729300  0.86831000  1
  C  C7  1  0.91231700  0.78270700  0.63169000  1
  C  C8  1  0.37346900  0.79979900  0.99448700  1
  C  C9  1  0.87346900  0.20020100  0.50551300  1
  C  C10  1  0.62653100  0.70020100  0.49448700  1
  C  C11  1  0.12653100  0.29979900  0.00551300  1
  C  C12  1  0.62653100  0.20020100  0.00551300  1
  C  C13  1  0.12653100  0.79979900  0.49448700  1
  C  C14  1  0.37346900  0.29979900  0.50551300  1
  C  C15  1  0.87346900  0.70020100  0.99448700  1
  C  C16  1  0.13911300  0.70450600  0.81032600  1
  C  C17  1  0.63911300  0.29549400  0.68967400  1
  C  C18  1  0.86088700  0.79549400  0.31032600  1
  C  C19  1  0.36088700  0.20450600  0.18967400  1
  C  C20  1  0.86088700  0.29549400  0.18967400  1
  C  C21  1  0.36088700  0.70450600  0.31032600  1
  C  C22  1  0.13911300  0.20450600  0.68967400  1
  C  C23  1  0.63911300  0.79549400  0.81032600  1
  C  C24  1  0.10913600  0.87622400  0.95692300  1
  C  C25  1  0.60913600  0.12377600  0.54307700  1
  C  C26  1  0.89086400  0.62377600  0.45692300  1
  C  C27  1  0.39086400  0.37622400  0.04307700  1
  C  C28  1  0.89086400  0.12377600  0.04307700  1
  C  C29  1  0.39086400  0.87622400  0.45692300  1
  C  C30  1  0.10913600  0.37622400  0.54307700  1
  C  C31  1  0.60913600  0.62377600  0.95692300  1
  Ni  Ni32  1  0.38288700  0.59380800  0.79629400  1
  Ni  Ni33  1  0.88288700  0.40619200  0.70370600  1
  Ni  Ni34  1  0.61711300  0.90619200  0.29629400  1
  Ni  Ni35  1  0.11711300  0.09380800  0.20370600  1
  Ni  Ni36  1  0.61711300  0.40619200  0.20370600  1
  Ni  Ni37  1  0.11711300  0.59380800  0.29629400  1
  Ni  Ni38  1  0.38288700  0.09380800  0.70370600  1
  Ni  Ni39  1  0.88288700  0.90619200  0.79629400  1
  Ni  Ni40  1  0.32184800  0.92598200  0.85361500  1
  Ni  Ni41  1  0.82184800  0.07401800  0.64638500  1
  Ni  Ni42  1  0.67815200  0.57401800  0.35361500  1
  Ni  Ni43  1  0.17815200  0.42598200  0.14638500  1
  Ni  Ni44  1  0.67815200  0.07401800  0.14638500  1
  Ni  Ni45  1  0.17815200  0.92598200  0.35361500  1
  Ni  Ni46  1  0.32184800  0.42598200  0.64638500  1
  Ni  Ni47  1  0.82184800  0.57401800  0.85361500  1
  Ni  Ni48  1  0.17012200  0.92883300  0.65661900  1
  Ni  Ni49  1  0.67012200  0.07116700  0.84338100  1
  Ni  Ni50  1  0.82987800  0.57116700  0.15661900  1
  Ni  Ni51  1  0.32987800  0.42883300  0.34338100  1
  Ni  Ni52  1  0.82987800  0.07116700  0.34338100  1
  Ni  Ni53  1  0.32987800  0.92883300  0.15661900  1
  Ni  Ni54  1  0.17012200  0.42883300  0.84338100  1
  Ni  Ni55  1  0.67012200  0.57116700  0.65661900  1
  Ni  Ni56  1  0.12043000  0.56458500  0.98067300  1
  Ni  Ni57  1  0.62043000  0.43541500  0.51932700  1
  Ni  Ni58  1  0.87957000  0.93541500  0.48067300  1
  Ni  Ni59  1  0.37957000  0.06458500  0.01932700  1
  Ni  Ni60  1  0.87957000  0.43541500  0.01932700  1
  Ni  Ni61  1  0.37957000  0.56458500  0.48067300  1
  Ni  Ni62  1  0.12043000  0.06458500  0.51932700  1
  Ni  Ni63  1  0.62043000  0.93541500  0.98067300  1
  Ni  Ni64  1  0.10656200  0.61002000  0.64590900  1
  Ni  Ni65  1  0.60656200  0.38998000  0.85409100  1
  Ni  Ni66  1  0.89343800  0.88998000  0.14590900  1
  Ni  Ni67  1  0.39343800  0.11002000  0.35409100  1
  Ni  Ni68  1  0.89343800  0.38998000  0.35409100  1
  Ni  Ni69  1  0.39343800  0.61002000  0.14590900  1
  Ni  Ni70  1  0.10656200  0.11002000  0.85409100  1
  Ni  Ni71  1  0.60656200  0.88998000  0.64590900  1
  Cu  Cu72  1  0.53240200  0.57092300  0.56761300  1
  Cu  Cu73  1  0.03240200  0.42907700  0.93238700  1
  Cu  Cu74  1  0.46759800  0.92907700  0.06761300  1
  Cu  Cu75  1  0.96759800  0.07092300  0.43238700  1
  Cu  Cu76  1  0.46759800  0.42907700  0.43238700  1
  Cu  Cu77  1  0.96759800  0.57092300  0.06761300  1
  Cu  Cu78  1  0.53240200  0.07092300  0.93238700  1
  Cu  Cu79  1  0.03240200  0.92907700  0.56761300  1
  Cu  Cu80  1  0.48588600  0.74411600  0.88895500  1
  Cu  Cu81  1  0.98588600  0.25588400  0.61104500  1
  Cu  Cu82  1  0.51411400  0.75588400  0.38895500  1
  Cu  Cu83  1  0.01411400  0.24411600  0.11104500  1
  Cu  Cu84  1  0.51411400  0.25588400  0.11104500  1
  Cu  Cu85  1  0.01411400  0.74411600  0.38895500  1
  Cu  Cu86  1  0.48588600  0.24411600  0.61104500  1
  Cu  Cu87  1  0.98588600  0.75588400  0.88895500  1
  Cu  Cu88  1  0.54337200  0.53378700  0.84981300  1
  Cu  Cu89  1  0.04337200  0.46621300  0.65018700  1
  Cu  Cu90  1  0.45662800  0.96621300  0.34981300  1
  Cu  Cu91  1  0.95662800  0.03378700  0.15018700  1
  Cu  Cu92  1  0.45662800  0.46621300  0.15018700  1
  Cu  Cu93  1  0.95662800  0.53378700  0.34981300  1
  Cu  Cu94  1  0.54337200  0.03378700  0.65018700  1
  Cu  Cu95  1  0.04337200  0.96621300  0.84981300  1
  Cu  Cu96  1  0.49055500  0.81712400  0.72398900  1
  Cu  Cu97  1  0.99055500  0.18287600  0.77601100  1
  Cu  Cu98  1  0.50944500  0.68287600  0.22398900  1
  Cu  Cu99  1  0.00944500  0.31712400  0.27601200  1
  Cu  Cu100  1  0.50944500  0.18287600  0.27601200  1
  Cu  Cu101  1  0.00944500  0.81712400  0.22398900  1
  Cu  Cu102  1  0.49055500  0.31712400  0.77601100  1
  Cu  Cu103  1  0.99055500  0.68287600  0.72398900  1
  Cu  Cu104  1  0.29948200  0.74466400  0.53419900  1
  Cu  Cu105  1  0.79948200  0.25533600  0.96580100  1
  Cu  Cu106  1  0.70051800  0.75533600  0.03419900  1
  Cu  Cu107  1  0.20051800  0.24466400  0.46580100  1
  Cu  Cu108  1  0.70051800  0.25533600  0.46580100  1
  Cu  Cu109  1  0.20051800  0.74466400  0.03419900  1
  Cu  Cu110  1  0.29948200  0.24466400  0.96580100  1
  Cu  Cu111  1  0.79948200  0.75533600  0.53419900  1
  Cu  Cu112  1  0.25041700  0.79859100  0.88736900  1
  Cu  Cu113  1  0.75041700  0.20140900  0.61263100  1
  Cu  Cu114  1  0.74958300  0.70140900  0.38736900  1
  Cu  Cu115  1  0.24958400  0.29859100  0.11263100  1
  Cu  Cu116  1  0.74958300  0.20140900  0.11263100  1
  Cu  Cu117  1  0.24958400  0.79859100  0.38736900  1
  Cu  Cu118  1  0.25041700  0.29859100  0.61263100  1
  Cu  Cu119  1  0.75041700  0.70140900  0.88736900  1
  Cu  Cu120  1  0.33222800  0.94546600  0.74598500  1
  Cu  Cu121  1  0.83222800  0.05453400  0.75401500  1
  Cu  Cu122  1  0.66777200  0.55453400  0.24598500  1
  Cu  Cu123  1  0.16777200  0.44546600  0.25401500  1
  Cu  Cu124  1  0.66777200  0.05453400  0.25401500  1
  Cu  Cu125  1  0.16777200  0.94546600  0.24598500  1
  Cu  Cu126  1  0.33222800  0.44546600  0.75401500  1
  Cu  Cu127  1  0.83222800  0.55453400  0.74598500  1
  Cu  Cu128  1  0.24135700  0.57086900  0.87983600  1
  Cu  Cu129  1  0.74135700  0.42913100  0.62016400  1
  Cu  Cu130  1  0.75864300  0.92913100  0.37983600  1
  Cu  Cu131  1  0.25864300  0.07086900  0.12016400  1
  Cu  Cu132  1  0.75864300  0.42913100  0.12016400  1
  Cu  Cu133  1  0.25864300  0.57086900  0.37983600  1
  Cu  Cu134  1  0.24135700  0.07086900  0.62016400  1
  Cu  Cu135  1  0.74135700  0.92913100  0.87983600  1
  Cu  Cu136  1  0.28675600  0.86986700  0.56680100  1
  Cu  Cu137  1  0.78675600  0.13013300  0.93319900  1
  Cu  Cu138  1  0.71324400  0.63013300  0.06680100  1
  Cu  Cu139  1  0.21324400  0.36986700  0.43319900  1
  Cu  Cu140  1  0.71324400  0.13013300  0.43319900  1
  Cu  Cu141  1  0.21324400  0.86986700  0.06680100  1
  Cu  Cu142  1  0.28675600  0.36986700  0.93319900  1
  Cu  Cu143  1  0.78675600  0.63013300  0.56680100  1
  Cu  Cu144  1  0.24564700  0.66344900  0.70255000  1
  Cu  Cu145  1  0.74564700  0.33655100  0.79745000  1
  Cu  Cu146  1  0.75435300  0.83655100  0.20255000  1
  Cu  Cu147  1  0.25435300  0.16344900  0.29745000  1
  Cu  Cu148  1  0.75435300  0.33655100  0.29745000  1
  Cu  Cu149  1  0.25435300  0.66344900  0.20255000  1
  Cu  Cu150  1  0.24564700  0.16344900  0.79745000  1
  Cu  Cu151  1  0.74564700  0.83655100  0.70255000  1
  Cu  Cu152  1  0.24962400  0.51986200  0.57279500  1
  Cu  Cu153  1  0.74962400  0.48013800  0.92720500  1
  Cu  Cu154  1  0.75037600  0.98013800  0.07279500  1
  Cu  Cu155  1  0.25037600  0.01986200  0.42720500  1
  Cu  Cu156  1  0.75037600  0.48013800  0.42720500  1
  Cu  Cu157  1  0.25037600  0.51986200  0.07279500  1
  Cu  Cu158  1  0.24962400  0.01986200  0.92720500  1
  Cu  Cu159  1  0.74962400  0.98013800  0.57279500  1
  Cu  Cu160  1  0.04980000  0.80577400  0.71988400  1
  Cu  Cu161  1  0.54980000  0.19422600  0.78011600  1
  Cu  Cu162  1  0.95020000  0.69422600  0.21988400  1
  Cu  Cu163  1  0.45020000  0.30577400  0.28011600  1
  Cu  Cu164  1  0.95020000  0.19422600  0.28011600  1
  Cu  Cu165  1  0.45020000  0.80577400  0.21988400  1
  Cu  Cu166  1  0.04980000  0.30577400  0.78011600  1
  Cu  Cu167  1  0.54980000  0.69422600  0.71988400  1
  Cu  Cu168  1  0.03445900  0.67720000  0.55718600  1
  Cu  Cu169  1  0.53445900  0.32280000  0.94281400  1
  Cu  Cu170  1  0.96554100  0.82280000  0.05718600  1
  Cu  Cu171  1  0.46554100  0.17720000  0.44281400  1
  Cu  Cu172  1  0.96554100  0.32280000  0.44281400  1
  Cu  Cu173  1  0.46554100  0.67720000  0.05718600  1
  Cu  Cu174  1  0.03445900  0.17720000  0.94281400  1
  Cu  Cu175  1  0.53445900  0.82280000  0.55718600  1
  Cu  Cu176  1  0.98688000  0.62471800  0.89336100  1
  Cu  Cu177  1  0.48688000  0.37528200  0.60663900  1
  Cu  Cu178  1  0.01312000  0.87528200  0.39336100  1
  Cu  Cu179  1  0.51312000  0.12471800  0.10663900  1
  Cu  Cu180  1  0.01312000  0.37528200  0.10663900  1
  Cu  Cu181  1  0.51312000  0.62471800  0.39336100  1
  Cu  Cu182  1  0.98688000  0.12471800  0.60663900  1
  Cu  Cu183  1  0.48688000  0.87528200  0.89336100  1
