# generated using pymatgen
data_CuNiC6
_symmetry_space_group_name_H-M   'P 1'
_cell_length_a   8.81137027
_cell_length_b   8.81137027
_cell_length_c   8.81137027
_cell_angle_alpha   109.47122063
_cell_angle_beta   109.47122063
_cell_angle_gamma   109.47122063
_symmetry_Int_Tables_number   1
_chemical_formula_structural   CuNiC6
_chemical_formula_sum   'Cu4 Ni4 C24'
_cell_volume   526.63347885
_cell_formula_units_Z   4
loop_
 _symmetry_equiv_pos_site_id
 _symmetry_equiv_pos_as_xyz
  1  'x, y, z'
loop_
 _atom_site_type_symbol
 _atom_site_label
 _atom_site_symmetry_multiplicity
 _atom_site_fract_x
 _atom_site_fract_y
 _atom_site_fract_z
 _atom_site_occupancy
  Ni  Ni0  1  0.88365700  0.88365700  0.88365700  1
  Ni  Ni1  1  0.50000000  0.00000000  0.61634300  1
  Ni  Ni2  1  0.61634300  0.50000000  0.00000000  1
  Ni  Ni3  1  0.00000000  0.61634300  0.50000000  1
  Cu  Cu4  1  0.40644600  0.40644600  0.40644600  1
  Cu  Cu5  1  0.50000000  0.00000000  0.09355400  1
  Cu  Cu6  1  0.09355400  0.50000000  0.00000000  1
  Cu  Cu7  1  0.00000000  0.09355400  0.50000000  1
  C  C8  1  0.58998200  0.75000000  0.33998200  1
  C  C9  1  0.91001800  0.25000000  0.16001800  1
  C  C10  1  0.33998200  0.58998200  0.75000000  1
  C  C11  1  0.75000000  0.33998200  0.58998200  1
  C  C12  1  0.25000000  0.16001800  0.91001800  1
  C  C13  1  0.16001800  0.91001800  0.25000000  1
  C  C14  1  0.41586700  0.64441400  0.28277400  1
  C  C15  1  0.86164000  0.13309300  0.21722600  1
  C  C16  1  0.08413300  0.36690700  0.22854700  1
  C  C17  1  0.63836000  0.85558600  0.27145300  1
  C  C18  1  0.28277400  0.41586700  0.64441400  1
  C  C19  1  0.64441400  0.28277400  0.41586700  1
  C  C20  1  0.27145300  0.63836000  0.85558600  1
  C  C21  1  0.13309300  0.21722600  0.86164000  1
  C  C22  1  0.21722600  0.86164000  0.13309300  1
  C  C23  1  0.36690700  0.22854700  0.08413300  1
  C  C24  1  0.22854700  0.08413300  0.36690700  1
  C  C25  1  0.85558600  0.27145300  0.63836000  1
  C  C26  1  0.71827900  0.75000000  0.46827900  1
  C  C27  1  0.78172100  0.25000000  0.03172100  1
  C  C28  1  0.46827900  0.71827900  0.75000000  1
  C  C29  1  0.75000000  0.46827900  0.71827900  1
  C  C30  1  0.25000000  0.03172100  0.78172100  1
  C  C31  1  0.03172100  0.78172100  0.25000000  1
