# generated using pymatgen
data_Cu16Ni2C17
_symmetry_space_group_name_H-M   'P 1'
_cell_length_a   12.78677400
_cell_length_b   6.38998400
_cell_length_c   9.43769274
_cell_angle_alpha   73.14783489
_cell_angle_beta   90.00000000
_cell_angle_gamma   90.00000000
_symmetry_Int_Tables_number   1
_chemical_formula_structural   Cu16Ni2C17
_chemical_formula_sum   'Cu32 Ni4 C34'
_cell_volume   738.01284736
_cell_formula_units_Z   2
loop_
 _symmetry_equiv_pos_site_id
 _symmetry_equiv_pos_as_xyz
  1  'x, y, z'
loop_
 _atom_site_type_symbol
 _atom_site_label
 _atom_site_symmetry_multiplicity
 _atom_site_fract_x
 _atom_site_fract_y
 _atom_site_fract_z
 _atom_site_occupancy
  C  C0  1  0.50000000  0.00000000  0.50000000  1
  C  C1  1  0.00000000  0.00000000  0.00000000  1
  C  C2  1  0.81918700  0.98442500  0.86606900  1
  C  C3  1  0.40216500  0.95379200  0.76165200  1
  C  C4  1  0.62860400  0.90556200  0.73910800  1
  C  C5  1  0.68081300  0.98442500  0.36606900  1
  C  C6  1  0.09783500  0.95379200  0.26165200  1
  C  C7  1  0.05988500  0.66679500  0.90729600  1
  C  C8  1  0.83758900  0.77582100  0.55504700  1
  C  C9  1  0.87139600  0.90556200  0.23910800  1
  C  C10  1  0.59733200  0.68449400  0.70637700  1
  C  C11  1  0.91659100  0.63525000  0.66459500  1
  C  C12  1  0.36291700  0.66544700  0.53749900  1
  C  C13  1  0.44011500  0.66679500  0.40729600  1
  C  C14  1  0.66241100  0.77582100  0.05504700  1
  C  C15  1  0.90266800  0.68449400  0.20637700  1
  C  C16  1  0.86291700  0.33455300  0.96250100  1
  C  C17  1  0.41659100  0.36475000  0.83540500  1
  C  C18  1  0.58340900  0.63525000  0.16459500  1
  C  C19  1  0.13708300  0.66544700  0.03749900  1
  C  C20  1  0.09733200  0.31550600  0.79362300  1
  C  C21  1  0.33758900  0.22417900  0.94495300  1
  C  C22  1  0.55988500  0.33320500  0.59270400  1
  C  C23  1  0.63708300  0.33455300  0.46250100  1
  C  C24  1  0.08340900  0.36475000  0.33540500  1
  C  C25  1  0.40266800  0.31550600  0.29362300  1
  C  C26  1  0.12860400  0.09443800  0.76089200  1
  C  C27  1  0.16241100  0.22417900  0.44495300  1
  C  C28  1  0.94011500  0.33320500  0.09270400  1
  C  C29  1  0.90216500  0.04620800  0.73834800  1
  C  C30  1  0.31918700  0.01557500  0.63393100  1
  C  C31  1  0.37139600  0.09443800  0.26089200  1
  C  C32  1  0.59783500  0.04620800  0.23834800  1
  C  C33  1  0.18081300  0.01557500  0.13393100  1
  Ni  Ni34  1  0.13699200  0.73499500  0.59098900  1
  Ni  Ni35  1  0.36300800  0.73499500  0.09098900  1
  Ni  Ni36  1  0.63699200  0.26500500  0.90901100  1
  Ni  Ni37  1  0.86300800  0.26500500  0.40901100  1
  Cu  Cu38  1  0.89289200  0.96639800  0.84355800  1
  Cu  Cu39  1  0.17431700  0.94127200  0.61648000  1
  Cu  Cu40  1  0.42612700  0.78612800  0.95745900  1
  Cu  Cu41  1  0.60647200  0.84253200  0.66093300  1
  Cu  Cu42  1  0.60710800  0.96639800  0.34355800  1
  Cu  Cu43  1  0.32568300  0.94127200  0.11648000  1
  Cu  Cu44  1  0.07387300  0.78612800  0.45745900  1
  Cu  Cu45  1  0.06966200  0.62004400  0.71754200  1
  Cu  Cu46  1  0.84265700  0.64386600  0.63846000  1
  Cu  Cu47  1  0.43492500  0.70172700  0.50176700  1
  Cu  Cu48  1  0.89352800  0.84253200  0.16093300  1
  Cu  Cu49  1  0.22478400  0.59748000  0.58335100  1
  Cu  Cu50  1  0.72478400  0.40252000  0.91664900  1
  Cu  Cu51  1  0.93492500  0.29827300  0.99823300  1
  Cu  Cu52  1  0.34265700  0.35613400  0.86154000  1
  Cu  Cu53  1  0.43033800  0.62004400  0.21754200  1
  Cu  Cu54  1  0.56966200  0.37995600  0.78245800  1
  Cu  Cu55  1  0.65734300  0.64386600  0.13846000  1
  Cu  Cu56  1  0.06507500  0.70172700  0.00176700  1
  Cu  Cu57  1  0.27521600  0.59748000  0.08335100  1
  Cu  Cu58  1  0.77521600  0.40252000  0.41664900  1
  Cu  Cu59  1  0.10647200  0.15746800  0.83906700  1
  Cu  Cu60  1  0.56507500  0.29827300  0.49823300  1
  Cu  Cu61  1  0.15734300  0.35613400  0.36154000  1
  Cu  Cu62  1  0.93033800  0.37995600  0.28245800  1
  Cu  Cu63  1  0.92612700  0.21387200  0.54254100  1
  Cu  Cu64  1  0.67431700  0.05872800  0.88352000  1
  Cu  Cu65  1  0.39289200  0.03360200  0.65644200  1
  Cu  Cu66  1  0.39352800  0.15746800  0.33906700  1
  Cu  Cu67  1  0.57387300  0.21387200  0.04254100  1
  Cu  Cu68  1  0.82568300  0.05872800  0.38352000  1
  Cu  Cu69  1  0.10710800  0.03360200  0.15644200  1
