# generated using pymatgen
data_CuNiC5
_symmetry_space_group_name_H-M   'P 1'
_cell_length_a   4.80452500
_cell_length_b   5.87748700
_cell_length_c   10.20029100
_cell_angle_alpha   90.00000000
_cell_angle_beta   90.00000000
_cell_angle_gamma   90.00000000
_symmetry_Int_Tables_number   1
_chemical_formula_structural   CuNiC5
_chemical_formula_sum   'Cu4 Ni4 C20'
_cell_volume   288.04125635
_cell_formula_units_Z   4
loop_
 _symmetry_equiv_pos_site_id
 _symmetry_equiv_pos_as_xyz
  1  'x, y, z'
loop_
 _atom_site_type_symbol
 _atom_site_label
 _atom_site_symmetry_multiplicity
 _atom_site_fract_x
 _atom_site_fract_y
 _atom_site_fract_z
 _atom_site_occupancy
  C  C0  1  0.00000000  0.00000000  0.50000000  1
  C  C1  1  0.00000000  0.50000000  0.50000000  1
  C  C2  1  0.50000000  0.50000000  0.00000000  1
  C  C3  1  0.50000000  0.00000000  0.00000000  1
  Ni  Ni4  1  0.99338200  0.25000000  0.22688900  1
  Ni  Ni5  1  0.50661800  0.25000000  0.72688900  1
  Ni  Ni6  1  0.49338200  0.75000000  0.27311100  1
  Ni  Ni7  1  0.00661800  0.75000000  0.77311100  1
  Cu  Cu8  1  0.94085700  0.75000000  0.09333400  1
  Cu  Cu9  1  0.55914300  0.75000000  0.59333400  1
  Cu  Cu10  1  0.44085700  0.25000000  0.40666600  1
  Cu  Cu11  1  0.05914300  0.25000000  0.90666600  1
  C  C12  1  0.31368700  0.25000000  0.55588700  1
  C  C13  1  0.77789600  0.25000000  0.39773000  1
  C  C14  1  0.71643700  0.96489500  0.67107900  1
  C  C15  1  0.71643700  0.53510500  0.67107900  1
  C  C16  1  0.78356300  0.96489500  0.17107900  1
  C  C17  1  0.78356300  0.53510500  0.17107900  1
  C  C18  1  0.72210400  0.25000000  0.89773000  1
  C  C19  1  0.18631300  0.25000000  0.05588700  1
  C  C20  1  0.81368700  0.75000000  0.94411300  1
  C  C21  1  0.27789600  0.75000000  0.10227000  1
  C  C22  1  0.28356300  0.46489500  0.32892100  1
  C  C23  1  0.28356300  0.03510500  0.32892100  1
  C  C24  1  0.21643700  0.46489500  0.82892100  1
  C  C25  1  0.21643700  0.03510500  0.82892100  1
  C  C26  1  0.22210400  0.75000000  0.60227000  1
  C  C27  1  0.68631300  0.75000000  0.44411300  1
