# generated using pymatgen
data_Cu2Ni4C3
_symmetry_space_group_name_H-M   'P 1'
_cell_length_a   5.58295600
_cell_length_b   5.59124343
_cell_length_c   7.30419999
_cell_angle_alpha   72.89203567
_cell_angle_beta   72.08332483
_cell_angle_gamma   72.54313840
_symmetry_Int_Tables_number   1
_chemical_formula_structural   Cu2Ni4C3
_chemical_formula_sum   'Cu4 Ni8 C6'
_cell_volume   201.77227038
_cell_formula_units_Z   2
loop_
 _symmetry_equiv_pos_site_id
 _symmetry_equiv_pos_as_xyz
  1  'x, y, z'
loop_
 _atom_site_type_symbol
 _atom_site_label
 _atom_site_symmetry_multiplicity
 _atom_site_fract_x
 _atom_site_fract_y
 _atom_site_fract_z
 _atom_site_occupancy
  C  C0  1  0.50000000  0.50000000  0.50000000  1
  C  C1  1  0.20289100  0.13223000  0.35164600  1
  C  C2  1  0.50000000  0.50000000  0.00000000  1
  C  C3  1  0.15103300  0.14467400  0.83388700  1
  C  C4  1  0.84896700  0.85532600  0.16611300  1
  C  C5  1  0.79710900  0.86777000  0.64835400  1
  Ni  Ni6  1  0.19596300  0.79311900  0.00235600  1
  Ni  Ni7  1  0.06446500  0.05593600  0.62588100  1
  Ni  Ni8  1  0.39248800  0.39045900  0.30517300  1
  Ni  Ni9  1  0.93553500  0.94406400  0.37411900  1
  Ni  Ni10  1  0.60751200  0.60954100  0.69482700  1
  Ni  Ni11  1  0.47570300  0.86083800  0.32908300  1
  Ni  Ni12  1  0.80403700  0.20688100  0.99764400  1
  Ni  Ni13  1  0.52429700  0.13916200  0.67091700  1
  Cu  Cu14  1  0.87787500  0.46367500  0.32764900  1
  Cu  Cu15  1  0.73783600  0.74393200  0.95640100  1
  Cu  Cu16  1  0.26216400  0.25606800  0.04359900  1
  Cu  Cu17  1  0.12212500  0.53632500  0.67235100  1
