# generated using pymatgen
data_Cu2NiC37
_symmetry_space_group_name_H-M   'P 1'
_cell_length_a   10.50778172
_cell_length_b   10.50778172
_cell_length_c   5.33501585
_cell_angle_alpha   82.82982425
_cell_angle_beta   82.82982425
_cell_angle_gamma   122.06231764
_symmetry_Int_Tables_number   1
_chemical_formula_structural   Cu2NiC37
_chemical_formula_sum   'Cu2 Ni1 C37'
_cell_volume   482.34751746
_cell_formula_units_Z   1
loop_
 _symmetry_equiv_pos_site_id
 _symmetry_equiv_pos_as_xyz
  1  'x, y, z'
loop_
 _atom_site_type_symbol
 _atom_site_label
 _atom_site_symmetry_multiplicity
 _atom_site_fract_x
 _atom_site_fract_y
 _atom_site_fract_z
 _atom_site_occupancy
  Ni  Ni0  1  0.50000000  0.50000000  0.00000000  1
  Cu  Cu1  1  0.27570600  0.72429400  0.50000000  1
  Cu  Cu2  1  0.72429400  0.27570600  0.50000000  1
  C  C3  1  0.07892500  0.92107500  0.50000000  1
  C  C4  1  0.92107500  0.07892500  0.50000000  1
  C  C5  1  0.17797000  0.82203000  0.00000000  1
  C  C6  1  0.82203000  0.17797000  0.00000000  1
  C  C7  1  0.00000000  0.00000000  0.00000000  1
  C  C8  1  0.80560800  0.63799800  0.29908400  1
  C  C9  1  0.63799800  0.80560800  0.29908400  1
  C  C10  1  0.19439200  0.36200200  0.70091600  1
  C  C11  1  0.36200200  0.19439200  0.70091600  1
  C  C12  1  0.88187000  0.54328600  0.80290000  1
  C  C13  1  0.54328600  0.88187000  0.80290000  1
  C  C14  1  0.11813000  0.45671400  0.19710000  1
  C  C15  1  0.45671400  0.11813000  0.19710000  1
  C  C16  1  0.97493000  0.79468500  0.22123800  1
  C  C17  1  0.79468500  0.97493000  0.22123800  1
  C  C18  1  0.02507000  0.20531500  0.77876200  1
  C  C19  1  0.20531500  0.02507000  0.77876200  1
  C  C20  1  0.05074500  0.70556400  0.71762200  1
  C  C21  1  0.70556400  0.05074500  0.71762200  1
  C  C22  1  0.94925500  0.29443600  0.28237800  1
  C  C23  1  0.29443600  0.94925500  0.28237800  1
  C  C24  1  0.89636800  0.89636800  0.71911500  1
  C  C25  1  0.10363200  0.10363200  0.28088500  1
  C  C26  1  0.87710300  0.38896300  0.79044300  1
  C  C27  1  0.38896300  0.87710300  0.79044300  1
  C  C28  1  0.12289700  0.61103700  0.20955700  1
  C  C29  1  0.61103700  0.12289700  0.20955700  1
  C  C30  1  0.78649700  0.52179800  0.10101500  1
  C  C31  1  0.52179800  0.78649700  0.10101500  1
  C  C32  1  0.21350300  0.47820200  0.89898500  1
  C  C33  1  0.47820200  0.21350300  0.89898500  1
  C  C34  1  0.76928300  0.53892100  0.59574800  1
  C  C35  1  0.53892100  0.76928300  0.59574800  1
  C  C36  1  0.23071700  0.46107900  0.40425200  1
  C  C37  1  0.46107900  0.23071700  0.40425200  1
  C  C38  1  0.66275300  0.66275300  0.28780000  1
  C  C39  1  0.33724700  0.33724700  0.71220000  1
