# generated using pymatgen
data_Cu26Ni4C13
_symmetry_space_group_name_H-M   'P 1'
_cell_length_a   10.26175802
_cell_length_b   10.26175802
_cell_length_c   10.26175754
_cell_angle_alpha   61.50883963
_cell_angle_beta   61.50883963
_cell_angle_gamma   61.50883686
_symmetry_Int_Tables_number   1
_chemical_formula_structural   Cu26Ni4C13
_chemical_formula_sum   'Cu26 Ni4 C13'
_cell_volume   789.97829154
_cell_formula_units_Z   1
loop_
 _symmetry_equiv_pos_site_id
 _symmetry_equiv_pos_as_xyz
  1  'x, y, z'
loop_
 _atom_site_type_symbol
 _atom_site_label
 _atom_site_symmetry_multiplicity
 _atom_site_fract_x
 _atom_site_fract_y
 _atom_site_fract_z
 _atom_site_occupancy
  C  C0  1  0.66114800  0.81933000  0.38252400  1
  C  C1  1  0.38252400  0.66114800  0.81933000  1
  C  C2  1  0.81933000  0.38252400  0.66114800  1
  C  C3  1  0.33885200  0.18067000  0.61747600  1
  C  C4  1  0.61747600  0.33885200  0.18067000  1
  C  C5  1  0.18067000  0.61747600  0.33885200  1
  C  C6  1  0.50000000  0.50000000  0.50000000  1
  C  C7  1  0.92116200  0.42459200  0.24314200  1
  C  C8  1  0.24314200  0.92116200  0.42459200  1
  C  C9  1  0.42459200  0.24314200  0.92116200  1
  C  C10  1  0.07883800  0.57540800  0.75685800  1
  C  C11  1  0.75685800  0.07883800  0.57540800  1
  C  C12  1  0.57540800  0.75685800  0.07883800  1
  Ni  Ni13  1  0.06917000  0.06917000  0.06917000  1
  Ni  Ni14  1  0.93083000  0.93083000  0.93083000  1
  Ni  Ni15  1  0.27833700  0.27833700  0.27833700  1
  Ni  Ni16  1  0.72166300  0.72166300  0.72166300  1
  Cu  Cu17  1  0.77014300  0.32603100  0.49290500  1
  Cu  Cu18  1  0.49290500  0.77014300  0.32603100  1
  Cu  Cu19  1  0.32603100  0.49290500  0.77014300  1
  Cu  Cu20  1  0.22985700  0.67396900  0.50709500  1
  Cu  Cu21  1  0.50709500  0.22985700  0.67396900  1
  Cu  Cu22  1  0.67396900  0.50709500  0.22985700  1
  Cu  Cu23  1  0.59610100  0.59610100  0.59610100  1
  Cu  Cu24  1  0.40389900  0.40389900  0.40389900  1
  Cu  Cu25  1  0.16136400  0.26954900  0.40335800  1
  Cu  Cu26  1  0.40335800  0.16136400  0.26954900  1
  Cu  Cu27  1  0.26954900  0.40335800  0.16136400  1
  Cu  Cu28  1  0.83863600  0.73045100  0.59664200  1
  Cu  Cu29  1  0.59664200  0.83863600  0.73045100  1
  Cu  Cu30  1  0.73045100  0.59664200  0.83863600  1
  Cu  Cu31  1  0.85975100  0.60136300  0.34216000  1
  Cu  Cu32  1  0.34216000  0.85975100  0.60136300  1
  Cu  Cu33  1  0.60136300  0.34216000  0.85975100  1
  Cu  Cu34  1  0.14024900  0.39863700  0.65784000  1
  Cu  Cu35  1  0.65784000  0.14024900  0.39863700  1
  Cu  Cu36  1  0.39863700  0.65784000  0.14024900  1
  Cu  Cu37  1  0.79421600  0.97595600  0.02273500  1
  Cu  Cu38  1  0.02273500  0.79421600  0.97595600  1
  Cu  Cu39  1  0.97595600  0.02273500  0.79421600  1
  Cu  Cu40  1  0.20578400  0.02404400  0.97726500  1
  Cu  Cu41  1  0.97726500  0.20578400  0.02404400  1
  Cu  Cu42  1  0.02404400  0.97726500  0.20578400  1
