# generated using pymatgen
data_Cu12Ni2C7
_symmetry_space_group_name_H-M   'P 1'
_cell_length_a   9.00964573
_cell_length_b   9.00964573
_cell_length_c   3.60618200
_cell_angle_alpha   90.00000000
_cell_angle_beta   90.00000000
_cell_angle_gamma   119.99999800
_symmetry_Int_Tables_number   1
_chemical_formula_structural   Cu12Ni2C7
_chemical_formula_sum   'Cu12 Ni2 C7'
_cell_volume   253.50919148
_cell_formula_units_Z   1
loop_
 _symmetry_equiv_pos_site_id
 _symmetry_equiv_pos_as_xyz
  1  'x, y, z'
loop_
 _atom_site_type_symbol
 _atom_site_label
 _atom_site_symmetry_multiplicity
 _atom_site_fract_x
 _atom_site_fract_y
 _atom_site_fract_z
 _atom_site_occupancy
  Ni  Ni0  1  0.00000000  0.00000000  0.00000000  1
  Ni  Ni1  1  0.33333300  0.66666700  0.50000000  1
  Cu  Cu2  1  0.81634600  0.60797200  0.00000000  1
  Cu  Cu3  1  0.39202800  0.20837400  0.00000000  1
  Cu  Cu4  1  0.79162600  0.18365400  0.00000000  1
  Cu  Cu5  1  0.04636700  0.77463600  0.50000000  1
  Cu  Cu6  1  0.22536400  0.27173000  0.50000000  1
  Cu  Cu7  1  0.72827000  0.95363300  0.50000000  1
  Cu  Cu8  1  0.10603000  0.40285300  0.00000000  1
  Cu  Cu9  1  0.59714700  0.70317700  0.00000000  1
  Cu  Cu10  1  0.29682300  0.89397000  0.00000000  1
  Cu  Cu11  1  0.89536000  0.43950300  0.50000000  1
  Cu  Cu12  1  0.56049700  0.45585600  0.50000000  1
  Cu  Cu13  1  0.54414400  0.10464000  0.50000000  1
  C  C14  1  0.77157200  0.73059500  0.50000000  1
  C  C15  1  0.26940500  0.04097700  0.50000000  1
  C  C16  1  0.95902300  0.22842800  0.50000000  1
  C  C17  1  0.66666700  0.33333300  0.00000000  1
  C  C18  1  0.06826600  0.62977300  0.00000000  1
  C  C19  1  0.37022700  0.43849300  0.00000000  1
  C  C20  1  0.56150700  0.93173400  0.00000000  1
