# generated using pymatgen
data_Cu11Ni9C10
_symmetry_space_group_name_H-M   'P 1'
_cell_length_a   4.74689600
_cell_length_b   4.76005050
_cell_length_c   15.60544663
_cell_angle_alpha   89.77075258
_cell_angle_beta   89.85031912
_cell_angle_gamma   88.35635405
_symmetry_Int_Tables_number   1
_chemical_formula_structural   Cu11Ni9C10
_chemical_formula_sum   'Cu11 Ni9 C10'
_cell_volume   352.46331583
_cell_formula_units_Z   1
loop_
 _symmetry_equiv_pos_site_id
 _symmetry_equiv_pos_as_xyz
  1  'x, y, z'
loop_
 _atom_site_type_symbol
 _atom_site_label
 _atom_site_symmetry_multiplicity
 _atom_site_fract_x
 _atom_site_fract_y
 _atom_site_fract_z
 _atom_site_occupancy
  C  C0  1  0.00403700  0.01459400  0.00637800  1
  C  C1  1  0.04023400  0.97757600  0.79298700  1
  C  C2  1  0.98976400  0.05762000  0.59772700  1
  C  C3  1  0.05156000  0.99782300  0.40167500  1
  C  C4  1  0.02263700  0.02621400  0.20389300  1
  C  C5  1  0.49707200  0.51788100  0.90360700  1
  C  C6  1  0.48076900  0.48528300  0.50129000  1
  C  C7  1  0.47716400  0.47413600  0.70070100  1
  C  C8  1  0.47923400  0.49750000  0.30416900  1
  C  C9  1  0.47492700  0.47746100  0.08779800  1
  Ni  Ni10  1  0.18709500  0.19213800  0.70076900  1
  Ni  Ni11  1  0.19269100  0.19926500  0.50205400  1
  Ni  Ni12  1  0.19284900  0.18242900  0.29926900  1
  Ni  Ni13  1  0.18688600  0.19418300  0.10091100  1
  Ni  Ni14  1  0.29489700  0.70354300  0.99650600  1
  Ni  Ni15  1  0.32006800  0.68097600  0.80051100  1
  Ni  Ni16  1  0.31593400  0.69107800  0.40790500  1
  Ni  Ni17  1  0.69542600  0.30279400  0.99456200  1
  Ni  Ni18  1  0.67812900  0.32341600  0.60280600  1
  Cu  Cu19  1  0.19661500  0.18942800  0.89626000  1
  Cu  Cu20  1  0.28658000  0.70671300  0.60411600  1
  Cu  Cu21  1  0.29950800  0.69203200  0.19134400  1
  Cu  Cu22  1  0.70686500  0.28979700  0.80141300  1
  Cu  Cu23  1  0.71024400  0.28626700  0.40681100  1
  Cu  Cu24  1  0.68800700  0.30644100  0.19435400  1
  Cu  Cu25  1  0.81488900  0.81044100  0.89514400  1
  Cu  Cu26  1  0.80469900  0.80962900  0.50452400  1
  Cu  Cu27  1  0.80063000  0.80402700  0.70131500  1
  Cu  Cu28  1  0.79527200  0.80308300  0.10157300  1
  Cu  Cu29  1  0.81531900  0.80623100  0.29762900  1
