# generated using pymatgen
data_Cu12Ni3C2
_symmetry_space_group_name_H-M   'P 1'
_cell_length_a   8.41060703
_cell_length_b   8.49059382
_cell_length_c   24.01084667
_cell_angle_alpha   90.00549977
_cell_angle_beta   90.00129626
_cell_angle_gamma   90.00589784
_symmetry_Int_Tables_number   1
_chemical_formula_structural   Cu12Ni3C2
_chemical_formula_sum   'Cu96 Ni24 C16'
_cell_volume   1714.63970885
_cell_formula_units_Z   8
loop_
 _symmetry_equiv_pos_site_id
 _symmetry_equiv_pos_as_xyz
  1  'x, y, z'
loop_
 _atom_site_type_symbol
 _atom_site_label
 _atom_site_symmetry_multiplicity
 _atom_site_fract_x
 _atom_site_fract_y
 _atom_site_fract_z
 _atom_site_occupancy
  C  C0  1  0.00296721  0.40015531  0.06364156  1
  C  C1  1  0.00286934  0.09986392  0.56364456  1
  C  C2  1  0.99355975  0.79959676  0.17998731  1
  C  C3  1  0.99330202  0.69996573  0.67979770  1
  C  C4  1  0.50640281  0.29954098  0.17997938  1
  C  C5  1  0.50631179  0.20022442  0.67983006  1
  C  C6  1  0.49721968  0.59988088  0.56365353  1
  C  C7  1  0.49710512  0.90025126  0.06358973  1
  C  C8  1  0.50287820  0.40026406  0.43642678  1
  C  C9  1  0.50281137  0.09964522  0.93643015  1
  C  C10  1  0.49360825  0.70031132  0.81998623  1
  C  C11  1  0.49354642  0.79958610  0.31999653  1
  C  C12  1  0.00644010  0.29956160  0.31999548  1
  C  C13  1  0.00643025  0.20025347  0.82001621  1
  C  C14  1  0.99718101  0.90033750  0.43642374  1
  C  C15  1  0.99721424  0.59962995  0.93644223  1
  Ni  Ni16  1  0.14281771  0.94746991  0.29877433  1
  Ni  Ni17  1  0.14289819  0.55265067  0.79873808  1
  Ni  Ni18  1  0.14748756  0.25852747  0.44591180  1
  Ni  Ni19  1  0.14745478  0.24154647  0.94589691  1
  Ni  Ni20  1  0.19818618  0.08936701  0.11678965  1
  Ni  Ni21  1  0.19791795  0.41064918  0.61675432  1
  Ni  Ni22  1  0.30169773  0.58924972  0.11679855  1
  Ni  Ni23  1  0.30182818  0.91070068  0.61674725  1
  Ni  Ni24  1  0.35257962  0.74156647  0.94590288  1
  Ni  Ni25  1  0.35257872  0.75844423  0.44589643  1
  Ni  Ni26  1  0.35720755  0.44745925  0.29879517  1
  Ni  Ni27  1  0.35714320  0.05255188  0.79875716  1
  Ni  Ni28  1  0.64279624  0.55278029  0.70127283  1
  Ni  Ni29  1  0.64280320  0.94754048  0.20124310  1
  Ni  Ni30  1  0.64743479  0.25849980  0.05411271  1
  Ni  Ni31  1  0.64738920  0.24139813  0.55405249  1
  Ni  Ni32  1  0.69801528  0.08928782  0.38327859  1
  Ni  Ni33  1  0.69814595  0.41070365  0.88326369  1
  Ni  Ni34  1  0.80190806  0.58923300  0.38327958  1
  Ni  Ni35  1  0.80184345  0.91073695  0.88326280  1
  Ni  Ni36  1  0.85265662  0.75838271  0.05410031  1
  Ni  Ni37  1  0.85269721  0.74136862  0.55409091  1
  Ni  Ni38  1  0.85718582  0.44754607  0.20124271  1
  Ni  Ni39  1  0.85714192  0.05254853  0.70129408  1
  Cu  Cu40  1  0.05638371  0.39193369  0.46424732  1
  Cu  Cu41  1  0.05627507  0.10800170  0.96423377  1
  Cu  Cu42  1  0.08516135  0.10493347  0.27949445  1
  Cu  Cu43  1  0.08515221  0.39523300  0.77948363  1
  Cu  Cu44  1  0.08423817  0.10515314  0.47235137  1
  Cu  Cu45  1  0.08418659  0.39489593  0.97238532  1
  Cu  Cu46  1  0.08526302  0.90788879  0.35475090  1
  Cu  Cu47  1  0.08511409  0.59222624  0.85470627  1
  Cu  Cu48  1  0.09132172  0.18584492  0.08098936  1
  Cu  Cu49  1  0.09158448  0.31429657  0.58097908  1
  Cu  Cu50  1  0.08752971  0.82480817  0.25936066  1
  Cu  Cu51  1  0.08732944  0.67540141  0.75931483  1
  Cu  Cu52  1  0.09716324  0.00101791  0.15679549  1
  Cu  Cu53  1  0.09749957  0.49890630  0.65692976  1
  Cu  Cu54  1  0.14220895  0.23061450  0.38432471  1
  Cu  Cu55  1  0.14214135  0.26941103  0.88433634  1
  Cu  Cu56  1  0.17887462  0.45713264  0.29683743  1
  Cu  Cu57  1  0.17895284  0.04289759  0.79683164  1
  Cu  Cu58  1  0.19049667  0.68479714  0.14944201  1
  Cu  Cu59  1  0.19078620  0.81525267  0.64967094  1
  Cu  Cu60  1  0.18147350  0.73236880  0.96315698  1
  Cu  Cu61  1  0.18157412  0.76757258  0.46317978  1
  Cu  Cu62  1  0.21921307  0.01914453  0.57683255  1
  Cu  Cu63  1  0.21918260  0.48068965  0.07679159  1
  Cu  Cu64  1  0.28072240  0.51918771  0.57681444  1
  Cu  Cu65  1  0.28070036  0.98073301  0.07683186  1
  Cu  Cu66  1  0.31847996  0.23238625  0.96317414  1
  Cu  Cu67  1  0.31852659  0.26764883  0.46318228  1
  Cu  Cu68  1  0.30943183  0.18488289  0.14943865  1
  Cu  Cu69  1  0.30925400  0.31527001  0.64963107  1
  Cu  Cu70  1  0.32115275  0.95714566  0.29682351  1
  Cu  Cu71  1  0.32102613  0.54278483  0.79684127  1
  Cu  Cu72  1  0.35780287  0.73062415  0.38430377  1
  Cu  Cu73  1  0.35784878  0.76939716  0.88433163  1
  Cu  Cu74  1  0.40251414  0.99900326  0.65691115  1
  Cu  Cu75  1  0.40277029  0.50093108  0.15680434  1
  Cu  Cu76  1  0.41247338  0.32481271  0.25937859  1
  Cu  Cu77  1  0.41254559  0.17527828  0.75933114  1
  Cu  Cu78  1  0.40858168  0.68576774  0.08102234  1
  Cu  Cu79  1  0.40843557  0.81428250  0.58100655  1
  Cu  Cu80  1  0.41474895  0.09211169  0.85473408  1
  Cu  Cu81  1  0.41468569  0.40790254  0.35477010  1
  Cu  Cu82  1  0.41585355  0.89486935  0.97237694  1
  Cu  Cu83  1  0.41583316  0.60505063  0.47232015  1
  Cu  Cu84  1  0.41484311  0.60494395  0.27951131  1
  Cu  Cu85  1  0.41473808  0.89522303  0.77953466  1
  Cu  Cu86  1  0.44369997  0.60802512  0.96423590  1
  Cu  Cu87  1  0.44367726  0.89186048  0.46424529  1
  Cu  Cu88  1  0.55630194  0.39202310  0.03576436  1
  Cu  Cu89  1  0.55625085  0.10797791  0.53578630  1
  Cu  Cu90  1  0.58524208  0.10492972  0.22047517  1
  Cu  Cu91  1  0.58558431  0.39503150  0.72044378  1
  Cu  Cu92  1  0.58430414  0.10509917  0.02763081  1
  Cu  Cu93  1  0.58420515  0.39492771  0.52758656  1
  Cu  Cu94  1  0.58517645  0.59213882  0.64526980  1
  Cu  Cu95  1  0.58519824  0.90787247  0.14520379  1
  Cu  Cu96  1  0.59143580  0.18560730  0.41885859  1
  Cu  Cu97  1  0.59137850  0.31426374  0.91886209  1
  Cu  Cu98  1  0.58748135  0.82476881  0.24068862  1
  Cu  Cu99  1  0.58747942  0.67518053  0.74066851  1
  Cu  Cu100  1  0.59716798  0.00115969  0.34323974  1
  Cu  Cu101  1  0.59719300  0.49893276  0.84323544  1
  Cu  Cu102  1  0.64223039  0.23062490  0.11567035  1
  Cu  Cu103  1  0.64219729  0.26944769  0.61564647  1
  Cu  Cu104  1  0.67881560  0.45713893  0.20316812  1
  Cu  Cu105  1  0.67870359  0.04300329  0.70320008  1
  Cu  Cu106  1  0.69054242  0.68481329  0.35058140  1
  Cu  Cu107  1  0.69054636  0.81518796  0.85057635  1
  Cu  Cu108  1  0.68137218  0.76757197  0.03681377  1
  Cu  Cu109  1  0.68143915  0.73251842  0.53685688  1
  Cu  Cu110  1  0.71933121  0.48066651  0.42308087  1
  Cu  Cu111  1  0.71932315  0.01932388  0.92308949  1
  Cu  Cu112  1  0.78059749  0.98075777  0.42308457  1
  Cu  Cu113  1  0.78071569  0.51938317  0.92308315  1
  Cu  Cu114  1  0.81872981  0.26764809  0.03681267  1
  Cu  Cu115  1  0.81859167  0.23247772  0.53682966  1
  Cu  Cu116  1  0.80941426  0.18483887  0.35058453  1
  Cu  Cu117  1  0.80941977  0.31518818  0.85056757  1
  Cu  Cu118  1  0.82133011  0.54293012  0.70320422  1
  Cu  Cu119  1  0.82117079  0.95713025  0.20316858  1
  Cu  Cu120  1  0.85781419  0.73054933  0.11565764  1
  Cu  Cu121  1  0.85796610  0.76944637  0.61575348  1
  Cu  Cu122  1  0.90275666  0.50110079  0.34324612  1
  Cu  Cu123  1  0.90279688  0.99893744  0.84320367  1
  Cu  Cu124  1  0.91252502  0.32475026  0.24067754  1
  Cu  Cu125  1  0.91241995  0.17518784  0.74064921  1
  Cu  Cu126  1  0.90847662  0.68559714  0.41885337  1
  Cu  Cu127  1  0.90863039  0.81427336  0.91888776  1
  Cu  Cu128  1  0.91478490  0.40781432  0.14520711  1
  Cu  Cu129  1  0.91470130  0.09203497  0.64526821  1
  Cu  Cu130  1  0.91595328  0.60495816  0.02762261  1
  Cu  Cu131  1  0.91589973  0.89506531  0.52765517  1
  Cu  Cu132  1  0.91480488  0.60492231  0.22047121  1
  Cu  Cu133  1  0.91483860  0.89499722  0.72047074  1
  Cu  Cu134  1  0.94388665  0.60805689  0.53581182  1
  Cu  Cu135  1  0.94375969  0.89192133  0.03575528  1
