# generated using pymatgen
data_Cu16Ni4C9
_symmetry_space_group_name_H-M   'P 1'
_cell_length_a   10.04648264
_cell_length_b   10.04648264
_cell_length_c   10.04648264
_cell_angle_alpha   60.00000000
_cell_angle_beta   60.00000000
_cell_angle_gamma   60.00000000
_symmetry_Int_Tables_number   1
_chemical_formula_structural   Cu16Ni4C9
_chemical_formula_sum   'Cu32 Ni8 C18'
_cell_volume   717.01314265
_cell_formula_units_Z   2
loop_
 _symmetry_equiv_pos_site_id
 _symmetry_equiv_pos_as_xyz
  1  'x, y, z'
loop_
 _atom_site_type_symbol
 _atom_site_label
 _atom_site_symmetry_multiplicity
 _atom_site_fract_x
 _atom_site_fract_y
 _atom_site_fract_z
 _atom_site_occupancy
  C  C0  1  0.29132600  0.29132600  0.70867400  1
  C  C1  1  0.95867400  0.54132600  0.54132600  1
  C  C2  1  0.70867400  0.29132600  0.70867400  1
  C  C3  1  0.29132600  0.70867400  0.29132600  1
  C  C4  1  0.54132600  0.95867400  0.95867400  1
  C  C5  1  0.54132600  0.54132600  0.95867400  1
  C  C6  1  0.70867400  0.29132600  0.29132600  1
  C  C7  1  0.70867400  0.70867400  0.29132600  1
  C  C8  1  0.54132600  0.95867400  0.54132600  1
  C  C9  1  0.95867400  0.54132600  0.95867400  1
  C  C10  1  0.29132600  0.70867400  0.70867400  1
  C  C11  1  0.95867400  0.95867400  0.54132600  1
  C  C12  1  0.62500000  0.12500000  0.12500000  1
  C  C13  1  0.12500000  0.12500000  0.12500000  1
  C  C14  1  0.12500000  0.12500000  0.62500000  1
  C  C15  1  0.12500000  0.62500000  0.12500000  1
  C  C16  1  0.50000000  0.50000000  0.50000000  1
  C  C17  1  0.75000000  0.75000000  0.75000000  1
  Ni  Ni18  1  0.26778900  0.91073700  0.91073700  1
  Ni  Ni19  1  0.91073700  0.26778900  0.91073700  1
  Ni  Ni20  1  0.91073700  0.91073700  0.91073700  1
  Ni  Ni21  1  0.91073700  0.91073700  0.26778900  1
  Ni  Ni22  1  0.33926300  0.33926300  0.98221100  1
  Ni  Ni23  1  0.33926300  0.33926300  0.33926300  1
  Ni  Ni24  1  0.33926300  0.98221100  0.33926300  1
  Ni  Ni25  1  0.98221100  0.33926300  0.33926300  1
  Cu  Cu26  1  0.22593400  0.48031900  0.31389300  1
  Cu  Cu27  1  0.97985300  0.31389300  0.48031900  1
  Cu  Cu28  1  0.27014700  0.02406600  0.93610700  1
  Cu  Cu29  1  0.02406600  0.27014700  0.76968100  1
  Cu  Cu30  1  0.27014700  0.76968100  0.02406600  1
  Cu  Cu31  1  0.57013500  0.57013500  0.28959500  1
  Cu  Cu32  1  0.93610700  0.02406600  0.76968100  1
  Cu  Cu33  1  0.57013500  0.28959500  0.57013500  1
  Cu  Cu34  1  0.57013500  0.57013500  0.57013500  1
  Cu  Cu35  1  0.93610700  0.27014700  0.02406600  1
  Cu  Cu36  1  0.76968100  0.27014700  0.93610700  1
  Cu  Cu37  1  0.28959500  0.57013500  0.57013500  1
  Cu  Cu38  1  0.02406600  0.93610700  0.27014700  1
  Cu  Cu39  1  0.76968100  0.93610700  0.02406600  1
  Cu  Cu40  1  0.93610700  0.76968100  0.27014700  1
  Cu  Cu41  1  0.48031900  0.22593400  0.97985300  1
  Cu  Cu42  1  0.76968100  0.02406600  0.27014700  1
  Cu  Cu43  1  0.31389300  0.48031900  0.97985300  1
  Cu  Cu44  1  0.48031900  0.31389300  0.22593400  1
  Cu  Cu45  1  0.22593400  0.31389300  0.97985300  1
  Cu  Cu46  1  0.96040500  0.67986500  0.67986500  1
  Cu  Cu47  1  0.48031900  0.97985300  0.31389300  1
  Cu  Cu48  1  0.31389300  0.97985300  0.22593400  1
  Cu  Cu49  1  0.67986500  0.96040500  0.67986500  1
  Cu  Cu50  1  0.67986500  0.67986500  0.67986500  1
  Cu  Cu51  1  0.31389300  0.22593400  0.48031900  1
  Cu  Cu52  1  0.67986500  0.67986500  0.96040500  1
  Cu  Cu53  1  0.97985300  0.48031900  0.22593400  1
  Cu  Cu54  1  0.22593400  0.97985300  0.48031900  1
  Cu  Cu55  1  0.97985300  0.22593400  0.31389300  1
  Cu  Cu56  1  0.27014700  0.93610700  0.76968100  1
  Cu  Cu57  1  0.02406600  0.76968100  0.93610700  1
