# generated using pymatgen
data_Cu2Ni4C19
_symmetry_space_group_name_H-M   'P 1'
_cell_length_a   7.76431800
_cell_length_b   9.28607504
_cell_length_c   9.29850575
_cell_angle_alpha   116.56680217
_cell_angle_beta   101.90811839
_cell_angle_gamma   101.92122204
_symmetry_Int_Tables_number   1
_chemical_formula_structural   Cu2Ni4C19
_chemical_formula_sum   'Cu4 Ni8 C38'
_cell_volume   551.46181783
_cell_formula_units_Z   2
loop_
 _symmetry_equiv_pos_site_id
 _symmetry_equiv_pos_as_xyz
  1  'x, y, z'
loop_
 _atom_site_type_symbol
 _atom_site_label
 _atom_site_symmetry_multiplicity
 _atom_site_fract_x
 _atom_site_fract_y
 _atom_site_fract_z
 _atom_site_occupancy
  C  C0  1  0.35728500  0.72226500  0.90787500  1
  C  C1  1  0.85275300  0.58013000  0.29031000  1
  C  C2  1  0.49973500  0.26528600  0.74550800  1
  C  C3  1  0.99008100  0.49978000  0.00073400  1
  C  C4  1  0.00333500  0.98690200  0.50497500  1
  C  C5  1  0.48792100  0.75307100  0.24876400  1
  Ni  Ni6  1  0.26885900  0.96352200  0.39245400  1
  Ni  Ni7  1  0.26524200  0.45590800  0.89396700  1
  Ni  Ni8  1  0.23167000  0.33346200  0.51021700  1
  Ni  Ni9  1  0.22905000  0.85888000  0.99782300  1
  Ni  Ni10  1  0.76685400  0.64981900  0.49781700  1
  Ni  Ni11  1  0.76333200  0.16163700  0.99206700  1
  Ni  Ni12  1  0.73282800  0.04457900  0.60241300  1
  Ni  Ni13  1  0.73292600  0.55684900  0.10273900  1
  Cu  Cu14  1  0.51042400  0.77290700  0.73520700  1
  Cu  Cu15  1  0.49254700  0.23530700  0.25930400  1
  Cu  Cu16  1  0.98902100  0.50157700  0.50788800  1
  Cu  Cu17  1  0.99973000  0.00047600  0.99965000  1
  C  C18  1  0.05205200  0.01152100  0.93750900  1
  C  C19  1  0.34007600  0.07863100  0.87241600  1
  C  C20  1  0.62995200  0.36388800  0.81637600  1
  C  C21  1  0.68126300  0.88879600  0.94629700  1
  C  C22  1  0.15817400  0.51325000  0.93092300  1
  C  C23  1  0.15933800  0.01803700  0.42859800  1
  C  C24  1  0.31740500  0.63556900  0.54158100  1
  C  C25  1  0.36207900  0.14483700  0.68440900  1
  C  C26  1  0.43956600  0.58384000  0.86813000  1
  C  C27  1  0.44377300  0.09724600  0.36109900  1
  C  C28  1  0.65615900  0.43571900  0.62308300  1
  C  C29  1  0.81830800  0.85980200  0.46694300  1
  C  C30  1  0.82429100  0.35418200  0.97835200  1
  C  C31  1  0.05658700  0.51652000  0.42988100  1
  C  C32  1  0.13107700  0.57726400  0.74504200  1
  C  C33  1  0.13195500  0.11872900  0.22838500  1
  C  C34  1  0.86385200  0.89801000  0.76371600  1
  C  C35  1  0.86326600  0.41277100  0.26202900  1
  C  C36  1  0.94298800  0.46876400  0.57433300  1
  C  C37  1  0.18421200  0.13589100  0.53109900  1
  C  C38  1  0.18310800  0.66769400  0.01098800  1
  C  C39  1  0.35241800  0.54864200  0.38640800  1
  C  C40  1  0.55315200  0.92259600  0.62898300  1
  C  C41  1  0.55852900  0.42957600  0.12557800  1
  C  C42  1  0.63373900  0.82899700  0.32542400  1
  C  C43  1  0.68404000  0.38492200  0.43882900  1
  C  C44  1  0.84434200  0.98050900  0.57227300  1
  C  C45  1  0.85356500  0.49780300  0.07036300  1
  C  C46  1  0.32496000  0.11032100  0.05935100  1
  C  C47  1  0.36674900  0.66667500  0.17397000  1
  C  C48  1  0.65989400  0.93200400  0.12495100  1
  C  C49  1  0.93939400  0.98342500  0.06792700  1
