# generated using pymatgen
data_Cu6NiC6
_symmetry_space_group_name_H-M   'P 1'
_cell_length_a   6.04106200
_cell_length_b   10.22881600
_cell_length_c   10.59125900
_cell_angle_alpha   90.00000000
_cell_angle_beta   90.00000000
_cell_angle_gamma   90.00000000
_symmetry_Int_Tables_number   1
_chemical_formula_structural   Cu6NiC6
_chemical_formula_sum   'Cu24 Ni4 C24'
_cell_volume   654.46473157
_cell_formula_units_Z   4
loop_
 _symmetry_equiv_pos_site_id
 _symmetry_equiv_pos_as_xyz
  1  'x, y, z'
loop_
 _atom_site_type_symbol
 _atom_site_label
 _atom_site_symmetry_multiplicity
 _atom_site_fract_x
 _atom_site_fract_y
 _atom_site_fract_z
 _atom_site_occupancy
  C  C0  1  0.75000000  0.04909700  0.39589600  1
  C  C1  1  0.25000000  0.45090300  0.89589600  1
  C  C2  1  0.75000000  0.40732500  0.43926400  1
  C  C3  1  0.25000000  0.09267500  0.93926400  1
  C  C4  1  0.75000000  0.90732500  0.06073600  1
  C  C5  1  0.25000000  0.59267500  0.56073600  1
  C  C6  1  0.75000000  0.54909700  0.10410400  1
  C  C7  1  0.25000000  0.95090300  0.60410400  1
  C  C8  1  0.75000000  0.51763000  0.73869500  1
  C  C9  1  0.25000000  0.98237000  0.23869500  1
  C  C10  1  0.75000000  0.01763000  0.76130500  1
  C  C11  1  0.25000000  0.48237000  0.26130500  1
  C  C12  1  0.75000000  0.29815100  0.92453000  1
  C  C13  1  0.25000000  0.20184900  0.42453000  1
  C  C14  1  0.75000000  0.79815100  0.57547000  1
  C  C15  1  0.25000000  0.70184900  0.07547000  1
  C  C16  1  0.50338800  0.72740100  0.32989700  1
  C  C17  1  0.49661200  0.77259900  0.82989700  1
  C  C18  1  0.99661200  0.22740100  0.17010300  1
  C  C19  1  0.00338800  0.27259900  0.67010300  1
  C  C20  1  0.49661200  0.27259900  0.67010300  1
  C  C21  1  0.50338800  0.22740100  0.17010300  1
  C  C22  1  0.00338800  0.77259900  0.82989700  1
  C  C23  1  0.99661200  0.72740100  0.32989700  1
  Ni  Ni24  1  0.75000000  0.20514900  0.76412300  1
  Ni  Ni25  1  0.25000000  0.29485100  0.26412300  1
  Ni  Ni26  1  0.75000000  0.70514900  0.73587700  1
  Ni  Ni27  1  0.25000000  0.79485100  0.23587700  1
  Cu  Cu28  1  0.75000000  0.96600000  0.60730800  1
  Cu  Cu29  1  0.25000000  0.53400000  0.10730800  1
  Cu  Cu30  1  0.00915000  0.72030500  0.98647200  1
  Cu  Cu31  1  0.99085000  0.77969500  0.48647200  1
  Cu  Cu32  1  0.49085000  0.22030500  0.51352800  1
  Cu  Cu33  1  0.50915000  0.27969500  0.01352800  1
  Cu  Cu34  1  0.99085000  0.27969500  0.01352800  1
  Cu  Cu35  1  0.00915000  0.22030500  0.51352800  1
  Cu  Cu36  1  0.50915000  0.77969500  0.48647200  1
  Cu  Cu37  1  0.98015900  0.44577600  0.66477100  1
  Cu  Cu38  1  0.51984100  0.44577600  0.66477100  1
  Cu  Cu39  1  0.48015900  0.05422400  0.16477100  1
  Cu  Cu40  1  0.98015900  0.94577600  0.83522900  1
  Cu  Cu41  1  0.01984100  0.55422400  0.33522900  1
  Cu  Cu42  1  0.25000000  0.23122100  0.74698300  1
  Cu  Cu43  1  0.75000000  0.26877900  0.24698300  1
  Cu  Cu44  1  0.25000000  0.73122100  0.75301700  1
  Cu  Cu45  1  0.75000000  0.76877900  0.25301700  1
  Cu  Cu46  1  0.49085000  0.72030500  0.98647200  1
  Cu  Cu47  1  0.48015900  0.55422400  0.33522900  1
  Cu  Cu48  1  0.51984100  0.94577600  0.83522900  1
  Cu  Cu49  1  0.01984100  0.05422400  0.16477100  1
  Cu  Cu50  1  0.75000000  0.46600000  0.89269200  1
  Cu  Cu51  1  0.25000000  0.03400000  0.39269200  1
