# generated using pymatgen
data_CuNiC3
_symmetry_space_group_name_H-M   'P 1'
_cell_length_a   5.50930406
_cell_length_b   5.50930406
_cell_length_c   5.50930440
_cell_angle_alpha   54.85176592
_cell_angle_beta   54.85176592
_cell_angle_gamma   54.85176898
_symmetry_Int_Tables_number   1
_chemical_formula_structural   CuNiC3
_chemical_formula_sum   'Cu2 Ni2 C6'
_cell_volume   104.07081870
_cell_formula_units_Z   2
loop_
 _symmetry_equiv_pos_site_id
 _symmetry_equiv_pos_as_xyz
  1  'x, y, z'
loop_
 _atom_site_type_symbol
 _atom_site_label
 _atom_site_symmetry_multiplicity
 _atom_site_fract_x
 _atom_site_fract_y
 _atom_site_fract_z
 _atom_site_occupancy
  Ni  Ni0  1  0.85357500  0.85357500  0.85357500  1
  Ni  Ni1  1  0.35357500  0.35357500  0.35357500  1
  Cu  Cu2  1  0.64572100  0.64572100  0.64572100  1
  Cu  Cu3  1  0.14572100  0.14572100  0.14572100  1
  C  C4  1  0.94912300  0.22213700  0.56813400  1
  C  C5  1  0.44912300  0.06813400  0.72213800  1
  C  C6  1  0.72213700  0.44912300  0.06813400  1
  C  C7  1  0.22213800  0.56813400  0.94912300  1
  C  C8  1  0.56813400  0.94912300  0.22213700  1
  C  C9  1  0.06813400  0.72213800  0.44912300  1
