# generated using pymatgen
data_Cu25NiC39
_symmetry_space_group_name_H-M   'P 1'
_cell_length_a   8.94251200
_cell_length_b   8.94511526
_cell_length_c   14.56740001
_cell_angle_alpha   90.19178182
_cell_angle_beta   90.08603770
_cell_angle_gamma   109.55918294
_symmetry_Int_Tables_number   1
_chemical_formula_structural   Cu25NiC39
_chemical_formula_sum   'Cu25 Ni1 C39'
_cell_volume   1098.02148364
_cell_formula_units_Z   1
loop_
 _symmetry_equiv_pos_site_id
 _symmetry_equiv_pos_as_xyz
  1  'x, y, z'
loop_
 _atom_site_type_symbol
 _atom_site_label
 _atom_site_symmetry_multiplicity
 _atom_site_fract_x
 _atom_site_fract_y
 _atom_site_fract_z
 _atom_site_occupancy
  Ni  Ni0  1  0.50031900  0.50173900  0.50012500  1
  Cu  Cu1  1  0.56593000  0.76768100  0.91750000  1
  Cu  Cu2  1  0.23450800  0.38882700  0.90803600  1
  Cu  Cu3  1  0.17243500  0.49246500  0.64711800  1
  Cu  Cu4  1  0.52893700  0.82934300  0.65959900  1
  Cu  Cu5  1  0.33240900  0.02467500  0.83030400  1
  Cu  Cu6  1  0.99201300  0.64048400  0.84159500  1
  Cu  Cu7  1  0.73421700  0.23480600  0.92917600  1
  Cu  Cu8  1  0.57935100  0.44462900  0.74419900  1
  Cu  Cu9  1  0.24217600  0.73557100  0.43014000  1
  Cu  Cu10  1  0.08265900  0.94235300  0.24903400  1
  Cu  Cu11  1  0.90046200  0.73051400  0.59427000  1
  Cu  Cu12  1  0.08985400  0.27597900  0.41648800  1
  Cu  Cu13  1  0.27870400  0.08833000  0.57965100  1
  Cu  Cu14  1  0.73339400  0.90070900  0.40652200  1
  Cu  Cu15  1  0.93673200  0.09034600  0.73973800  1
  Cu  Cu16  1  0.44372400  0.57938400  0.25718000  1
  Cu  Cu17  1  0.23142200  0.73567800  0.07626300  1
  Cu  Cu18  1  0.73243000  0.25260200  0.56579800  1
  Cu  Cu19  1  0.65339200  0.98667100  0.15598700  1
  Cu  Cu20  1  0.02268500  0.32682700  0.16708000  1
  Cu  Cu21  1  0.48631100  0.16155500  0.34744400  1
  Cu  Cu22  1  0.83019200  0.52468300  0.33747200  1
  Cu  Cu23  1  0.98197900  0.97930700  0.98476200  1
  Cu  Cu24  1  0.39346000  0.23265700  0.09634400  1
  Cu  Cu25  1  0.77282100  0.58093900  0.08587600  1
  C  C26  1  0.99801300  0.62992700  0.99937400  1
  C  C27  1  0.31647000  0.70283900  0.94275000  1
  C  C28  1  0.04358400  0.92850600  0.69203800  1
  C  C29  1  0.00572700  0.22260100  0.00122100  1
  C  C30  1  0.06007800  0.43445900  0.82344600  1
  C  C31  1  0.57019800  0.92667700  0.81057000  1
  C  C32  1  0.22292400  0.00284300  0.00499300  1
  C  C33  1  0.20487000  0.82122700  0.56083600  1
  C  C34  1  0.42651900  0.54756800  0.81092900  1
  C  C35  1  0.18375000  0.18439400  0.81296900  1
  C  C36  1  0.49695800  0.23840100  0.88068000  1
  C  C37  1  0.75148900  0.51447700  0.86669300  1
  C  C38  1  0.02007000  0.25350800  0.62947700  1
  C  C39  1  0.74381100  0.00526800  0.62042700  1
  C  C40  1  0.11743400  0.50045400  0.50043800  1
  C  C41  1  0.62966700  0.99886800  0.99948200  1
  C  C42  1  0.69179400  0.69225900  0.69090300  1
  C  C43  1  0.50215900  0.71412000  0.50288500  1
  C  C44  1  0.39112100  0.39760000  0.60637600  1
  C  C45  1  0.42971100  0.07756200  0.68958900  1
  C  C46  1  0.55997100  0.94126900  0.32153100  1
  C  C47  1  0.94472400  0.55942500  0.68036900  1
  C  C48  1  0.07508800  0.42973200  0.31045200  1
  C  C49  1  0.39660500  0.39539300  0.39369800  1
  C  C50  1  0.71119800  0.49658100  0.50316900  1
  C  C51  1  0.69236000  0.69124500  0.31073100  1
  C  C52  1  0.50171700  0.11840800  0.50051800  1
  C  C53  1  0.00078900  0.73738400  0.38357700  1
  C  C54  1  0.25116500  0.01372100  0.37256400  1
  C  C55  1  0.23425700  0.49598000  0.11833100  1
  C  C56  1  0.50659200  0.75056200  0.13127700  1
  C  C57  1  0.19129600  0.19129100  0.19405100  1
  C  C58  1  0.82222500  0.20588600  0.43982100  1
  C  C59  1  0.54907400  0.42878300  0.19170300  1
  C  C60  1  0.89368700  0.89461600  0.11571900  1
  C  C61  1  0.92875300  0.56748800  0.19150100  1
  C  C62  1  0.43734000  0.05985900  0.17991000  1
  C  C63  1  0.70136000  0.31964200  0.05978600  1
  C  C64  1  0.93129100  0.04877600  0.31226700  1
