# generated using pymatgen
data_Cu3Ni7C20
_symmetry_space_group_name_H-M   'P 1'
_cell_length_a   5.82532000
_cell_length_b   5.88368961
_cell_length_c   24.37743221
_cell_angle_alpha   96.77816733
_cell_angle_beta   89.97786429
_cell_angle_gamma   119.64994475
_symmetry_Int_Tables_number   1
_chemical_formula_structural   Cu3Ni7C20
_chemical_formula_sum   'Cu6 Ni14 C40'
_cell_volume   719.41591997
_cell_formula_units_Z   2
loop_
 _symmetry_equiv_pos_site_id
 _symmetry_equiv_pos_as_xyz
  1  'x, y, z'
loop_
 _atom_site_type_symbol
 _atom_site_label
 _atom_site_symmetry_multiplicity
 _atom_site_fract_x
 _atom_site_fract_y
 _atom_site_fract_z
 _atom_site_occupancy
  Ni  Ni0  1  0.69771000  0.19717300  0.10041700  1
  Ni  Ni1  1  0.69844100  0.69761800  0.10022200  1
  Ni  Ni2  1  0.10310500  0.10143700  0.29990400  1
  Ni  Ni3  1  0.60296000  0.10130200  0.30007200  1
  Ni  Ni4  1  0.19860100  0.69678500  0.10022600  1
  Ni  Ni5  1  0.10349000  0.60107900  0.30001800  1
  Ni  Ni6  1  0.50068000  0.49986300  0.50032100  1
  Ni  Ni7  1  0.80048000  0.30433100  0.89995700  1
  Ni  Ni8  1  0.00085200  0.50095500  0.50009500  1
  Ni  Ni9  1  0.40068100  0.90106600  0.69995800  1
  Ni  Ni10  1  0.29988600  0.30232800  0.90020900  1
  Ni  Ni11  1  0.90100600  0.90114800  0.70016500  1
  Ni  Ni12  1  0.10205600  0.60267300  0.80011700  1
  Ni  Ni13  1  0.70124400  0.20054200  0.60001100  1
  Cu  Cu14  1  0.30251200  0.80089100  0.39997900  1
  Cu  Cu15  1  0.49839900  0.99871000  0.00021200  1
  Cu  Cu16  1  0.90082500  0.40034800  0.20013600  1
  Cu  Cu17  1  0.50120400  0.00115200  0.49990100  1
  Cu  Cu18  1  0.90051800  0.40098800  0.70015300  1
  Cu  Cu19  1  0.30161200  0.80350900  0.89991300  1
  C  C20  1  0.81179300  0.07156900  0.05492700  1
  C  C21  1  0.36664400  0.07070100  0.05522000  1
  C  C22  1  0.25610700  0.98789400  0.25941700  1
  C  C23  1  0.85121400  0.58396500  0.05967900  1
  C  C24  1  0.02875600  0.32300300  0.14576200  1
  C  C25  1  0.58511200  0.32437200  0.14582300  1
  C  C26  1  0.98919200  0.72720200  0.34537900  1
  C  C27  1  0.02882200  0.76698600  0.14549800  1
  C  C28  1  0.77312700  0.03274700  0.25462500  1
  C  C29  1  0.36866500  0.62716900  0.05520200  1
  C  C30  1  0.21665800  0.47509600  0.25452100  1
  C  C31  1  0.77227000  0.47570600  0.25475100  1
  C  C32  1  0.16409800  0.87266700  0.45373000  1
  C  C33  1  0.34388500  0.60554500  0.54098300  1
  C  C34  1  0.54540900  0.81021400  0.14091100  1
  C  C35  1  0.95026600  0.21411500  0.34062900  1
  C  C36  1  0.43444800  0.72722200  0.34526000  1
  C  C37  1  0.43287100  0.17108900  0.34510800  1
  C  C38  1  0.82844300  0.56211700  0.54707600  1
  C  C39  1  0.39092300  0.12952800  0.54754700  1
  C  C40  1  0.61764000  0.87163800  0.45382000  1
  C  C41  1  0.57312700  0.83822600  0.65320600  1
  C  C42  1  0.17126000  0.43228300  0.45449700  1
  C  C43  1  0.56574600  0.27094700  0.65226600  1
  C  C44  1  0.23627500  0.53140100  0.74777400  1
  C  C45  1  0.65762500  0.39691300  0.45891000  1
  C  C46  1  0.83546600  0.13028500  0.54733400  1
  C  C47  1  0.05690200  0.79557500  0.65921300  1
  C  C48  1  0.45747900  0.19965800  0.85913600  1
  C  C49  1  0.62882100  0.36966900  0.94588000  1
  C  C50  1  0.22971700  0.96454600  0.74687000  1
  C  C51  1  0.79165300  0.53166400  0.74801500  1
  C  C52  1  0.01086900  0.27083200  0.65244400  1
  C  C53  1  0.97280700  0.24175100  0.85318000  1
  C  C54  1  0.41155200  0.67267900  0.85277200  1
  C  C55  1  0.96798500  0.67486800  0.85250200  1
  C  C56  1  0.74381500  0.00628100  0.74096000  1
  C  C57  1  0.14318900  0.40732400  0.94119800  1
  C  C58  1  0.63820300  0.93196500  0.94587400  1
  C  C59  1  0.18347100  0.93017000  0.94623200  1
