# generated using pymatgen
data_Cu9Ni3C7
_symmetry_space_group_name_H-M   'P 1'
_cell_length_a   5.49466800
_cell_length_b   5.70534910
_cell_length_c   9.13027394
_cell_angle_alpha   104.57634488
_cell_angle_beta   89.50847620
_cell_angle_gamma   117.85924825
_symmetry_Int_Tables_number   1
_chemical_formula_structural   Cu9Ni3C7
_chemical_formula_sum   'Cu9 Ni3 C7'
_cell_volume   242.90975196
_cell_formula_units_Z   1
loop_
 _symmetry_equiv_pos_site_id
 _symmetry_equiv_pos_as_xyz
  1  'x, y, z'
loop_
 _atom_site_type_symbol
 _atom_site_label
 _atom_site_symmetry_multiplicity
 _atom_site_fract_x
 _atom_site_fract_y
 _atom_site_fract_z
 _atom_site_occupancy
  C  C0  1  0.21181700  0.29158600  0.07104500  1
  C  C1  1  0.03593600  0.71235900  0.66504700  1
  C  C2  1  0.47790200  0.32119500  0.81458900  1
  C  C3  1  0.32050900  0.70887800  0.43153500  1
  C  C4  1  0.49020400  0.72292400  0.17424400  1
  C  C5  1  0.94951600  0.31090100  0.31594600  1
  C  C6  1  0.78004600  0.32597200  0.58512700  1
  Ni  Ni7  1  0.18167600  0.48193400  0.62149600  1
  Ni  Ni8  1  0.24991400  0.78167400  0.23505300  1
  Ni  Ni9  1  0.75459500  0.80003900  0.47567500  1
  Cu  Cu10  1  0.19775300  0.18926200  0.27693600  1
  Cu  Cu11  1  0.24824100  0.80704200  0.96934500  1
  Cu  Cu12  1  0.35148200  0.17805600  0.54830500  1
  Cu  Cu13  1  0.28009400  0.47798500  0.86791700  1
  Cu  Cu14  1  0.63242600  0.48586700  0.14324700  1
  Cu  Cu15  1  0.72029200  0.20131900  0.77051100  1
  Cu  Cu16  1  0.76819400  0.18242000  0.01973800  1
  Cu  Cu17  1  0.77862500  0.83384900  0.69971100  1
  Cu  Cu18  1  0.78718700  0.48003800  0.38448400  1
