# generated using pymatgen
data_Cu2NiC2
_symmetry_space_group_name_H-M   'P 1'
_cell_length_a   5.39422200
_cell_length_b   5.39422200
_cell_length_c   12.09227000
_cell_angle_alpha   90.00000000
_cell_angle_beta   90.00000000
_cell_angle_gamma   90.00000000
_symmetry_Int_Tables_number   1
_chemical_formula_structural   Cu2NiC2
_chemical_formula_sum   'Cu8 Ni4 C8'
_cell_volume   351.85641023
_cell_formula_units_Z   4
loop_
 _symmetry_equiv_pos_site_id
 _symmetry_equiv_pos_as_xyz
  1  'x, y, z'
loop_
 _atom_site_type_symbol
 _atom_site_label
 _atom_site_symmetry_multiplicity
 _atom_site_fract_x
 _atom_site_fract_y
 _atom_site_fract_z
 _atom_site_occupancy
  Ni  Ni0  1  0.92008100  0.92008100  0.50000000  1
  Ni  Ni1  1  0.57991900  0.42008100  0.75000000  1
  Ni  Ni2  1  0.42008100  0.57991900  0.25000000  1
  Ni  Ni3  1  0.07991900  0.07991900  0.00000000  1
  Cu  Cu4  1  0.98838600  0.67991200  0.46356600  1
  Cu  Cu5  1  0.01161400  0.32008800  0.96356600  1
  Cu  Cu6  1  0.67991200  0.98838600  0.53643400  1
  Cu  Cu7  1  0.17991200  0.51161400  0.21356600  1
  Cu  Cu8  1  0.48838600  0.82008800  0.28643400  1
  Cu  Cu9  1  0.32008800  0.01161400  0.03643400  1
  Cu  Cu10  1  0.82008800  0.48838600  0.71356600  1
  Cu  Cu11  1  0.51161400  0.17991200  0.78643400  1
  C  C12  1  0.61145700  0.49493200  0.15971500  1
  C  C13  1  0.11145700  0.00506800  0.59028500  1
  C  C14  1  0.99493200  0.88854300  0.90971500  1
  C  C15  1  0.00506800  0.11145700  0.40971500  1
  C  C16  1  0.50506800  0.38854300  0.34028500  1
  C  C17  1  0.88854300  0.99493200  0.09028500  1
  C  C18  1  0.38854300  0.50506800  0.65971500  1
  C  C19  1  0.49493200  0.61145700  0.84028500  1
