# generated using pymatgen
data_Cu2Ni3C11
_symmetry_space_group_name_H-M   'P 1'
_cell_length_a   9.02765800
_cell_length_b   7.98847680
_cell_length_c   6.46511269
_cell_angle_alpha   112.31312106
_cell_angle_beta   110.28396474
_cell_angle_gamma   99.00922906
_symmetry_Int_Tables_number   1
_chemical_formula_structural   Cu2Ni3C11
_chemical_formula_sum   'Cu4 Ni6 C22'
_cell_volume   381.61790387
_cell_formula_units_Z   2
loop_
 _symmetry_equiv_pos_site_id
 _symmetry_equiv_pos_as_xyz
  1  'x, y, z'
loop_
 _atom_site_type_symbol
 _atom_site_label
 _atom_site_symmetry_multiplicity
 _atom_site_fract_x
 _atom_site_fract_y
 _atom_site_fract_z
 _atom_site_occupancy
  C  C0  1  0.82686400  0.43843300  0.09201400  1
  C  C1  1  0.17313600  0.56156700  0.90798600  1
  C  C2  1  0.00000000  0.00000000  0.50000000  1
  C  C3  1  0.00000000  0.50000000  0.50000000  1
  C  C4  1  0.82802300  0.81302700  0.80978100  1
  C  C5  1  0.17197700  0.18697300  0.19021900  1
  Ni  Ni6  1  0.71798500  0.60579300  0.49662600  1
  Ni  Ni7  1  0.28201500  0.39420700  0.50337400  1
  Ni  Ni8  1  0.44653300  0.70011400  0.72989200  1
  Ni  Ni9  1  0.55346700  0.29988600  0.27010800  1
  Ni  Ni10  1  0.44040600  0.44786300  0.72824800  1
  Ni  Ni11  1  0.55959400  0.55213700  0.27175200  1
  Cu  Cu12  1  0.69879400  0.93802000  0.15737400  1
  Cu  Cu13  1  0.30120600  0.06198000  0.84262600  1
  Cu  Cu14  1  0.24900400  0.75157600  0.29554000  1
  Cu  Cu15  1  0.75099600  0.24842400  0.70446000  1
  C  C16  1  0.74101600  0.82055900  0.27228800  1
  C  C17  1  0.25898400  0.17944100  0.72771200  1
  C  C18  1  0.24767300  0.78701200  0.72810800  1
  C  C19  1  0.75232700  0.21298800  0.27189200  1
  C  C20  1  0.85563800  0.96376200  0.07186200  1
  C  C21  1  0.14436200  0.03623800  0.92813800  1
  C  C22  1  0.07799300  0.72725700  0.37036200  1
  C  C23  1  0.92200700  0.27274300  0.62963800  1
  C  C24  1  0.83847600  0.51342900  0.85090700  1
  C  C25  1  0.16152400  0.48657100  0.14909300  1
  C  C26  1  0.75524100  0.09364600  0.79744600  1
  C  C27  1  0.24475900  0.90635400  0.20255400  1
  C  C28  1  0.85193200  0.70484700  0.57088400  1
  C  C29  1  0.14806800  0.29515300  0.42911600  1
  C  C30  1  0.51048000  0.59318400  0.70749100  1
  C  C31  1  0.48952000  0.40681600  0.29250900  1
