# generated using pymatgen
data_CuNiC5
_symmetry_space_group_name_H-M   'P 1'
_cell_length_a   15.18477300
_cell_length_b   9.89780700
_cell_length_c   10.53988659
_cell_angle_alpha   78.57988550
_cell_angle_beta   90.00000000
_cell_angle_gamma   90.00000000
_symmetry_Int_Tables_number   1
_chemical_formula_structural   CuNiC5
_chemical_formula_sum   'Cu8 Ni8 C40'
_cell_volume   1552.73979883
_cell_formula_units_Z   8
loop_
 _symmetry_equiv_pos_site_id
 _symmetry_equiv_pos_as_xyz
  1  'x, y, z'
loop_
 _atom_site_type_symbol
 _atom_site_label
 _atom_site_symmetry_multiplicity
 _atom_site_fract_x
 _atom_site_fract_y
 _atom_site_fract_z
 _atom_site_occupancy
  Ni  Ni0  1  0.97564100  0.78916500  0.71460600  1
  Ni  Ni1  1  0.51825500  0.68737300  0.66411500  1
  Ni  Ni2  1  0.52435900  0.78916500  0.21460600  1
  Ni  Ni3  1  0.98174500  0.68737300  0.16411500  1
  Ni  Ni4  1  0.01825500  0.31262700  0.83588500  1
  Ni  Ni5  1  0.47564100  0.21083500  0.78539400  1
  Ni  Ni6  1  0.48174500  0.31262700  0.33588500  1
  Ni  Ni7  1  0.02435900  0.21083500  0.28539400  1
  Cu  Cu8  1  0.23393400  0.99330100  0.61216400  1
  Cu  Cu9  1  0.26606600  0.99330100  0.11216400  1
  Cu  Cu10  1  0.26352300  0.56370000  0.95948600  1
  Cu  Cu11  1  0.23647700  0.56370000  0.45948600  1
  Cu  Cu12  1  0.76352300  0.43630000  0.54051400  1
  Cu  Cu13  1  0.73647700  0.43630000  0.04051400  1
  Cu  Cu14  1  0.73393400  0.00669900  0.88783600  1
  Cu  Cu15  1  0.76606600  0.00669900  0.38783600  1
  C  C16  1  0.91720500  0.90632900  0.94821500  1
  C  C17  1  0.55594400  0.92141800  0.85285100  1
  C  C18  1  0.58279500  0.90632900  0.44821500  1
  C  C19  1  0.80229100  0.92384900  0.66385000  1
  C  C20  1  0.94405600  0.92141800  0.35285100  1
  C  C21  1  0.14743000  0.80193700  0.86134800  1
  C  C22  1  0.69770900  0.92384900  0.16385000  1
  C  C23  1  0.73006000  0.71979200  0.96179900  1
  C  C24  1  0.35257000  0.80193700  0.36134800  1
  C  C25  1  0.12891300  0.77884600  0.53004600  1
  C  C26  1  0.33148000  0.74371000  0.69932000  1
  C  C27  1  0.76994000  0.71979200  0.46179900  1
  C  C28  1  0.37108700  0.77884600  0.03004600  1
  C  C29  1  0.16852000  0.74371000  0.19932000  1
  C  C30  1  0.67267300  0.52071300  0.75521700  1
  C  C31  1  0.90731100  0.53708200  0.93409900  1
  C  C32  1  0.43285700  0.47221300  0.88034200  1
  C  C33  1  0.93285700  0.52778700  0.61965800  1
  C  C34  1  0.40731100  0.46291800  0.56590100  1
  C  C35  1  0.17267300  0.47928700  0.74478300  1
  C  C36  1  0.82732700  0.52071300  0.25521700  1
  C  C37  1  0.59268900  0.53708200  0.43409900  1
  C  C38  1  0.06714300  0.47221300  0.38034200  1
  C  C39  1  0.56714300  0.52778700  0.11965800  1
  C  C40  1  0.09268900  0.46291800  0.06590100  1
  C  C41  1  0.32732700  0.47928700  0.24478300  1
  C  C42  1  0.83148000  0.25629000  0.80068000  1
  C  C43  1  0.62891300  0.22115400  0.96995400  1
  C  C44  1  0.23006000  0.28020800  0.53820100  1
  C  C45  1  0.66852000  0.25629000  0.30068000  1
  C  C46  1  0.87108700  0.22115400  0.46995400  1
  C  C47  1  0.64743000  0.19806300  0.63865200  1
  C  C48  1  0.26994000  0.28020800  0.03820100  1
  C  C49  1  0.30229100  0.07615100  0.83615000  1
  C  C50  1  0.85257000  0.19806300  0.13865200  1
  C  C51  1  0.05594400  0.07858200  0.64714900  1
  C  C52  1  0.19770900  0.07615100  0.33615000  1
  C  C53  1  0.41720500  0.09367100  0.55178500  1
  C  C54  1  0.44405600  0.07858200  0.14714900  1
  C  C55  1  0.08279500  0.09367100  0.05178500  1
