# generated using pymatgen
data_Cu2Ni3C31
_symmetry_space_group_name_H-M   'P 1'
_cell_length_a   8.65672590
_cell_length_b   8.65672590
_cell_length_c   8.65672641
_cell_angle_alpha   60.04098489
_cell_angle_beta   60.04098489
_cell_angle_gamma   60.04098435
_symmetry_Int_Tables_number   1
_chemical_formula_structural   Cu2Ni3C31
_chemical_formula_sum   'Cu2 Ni3 C31'
_cell_volume   459.14440162
_cell_formula_units_Z   1
loop_
 _symmetry_equiv_pos_site_id
 _symmetry_equiv_pos_as_xyz
  1  'x, y, z'
loop_
 _atom_site_type_symbol
 _atom_site_label
 _atom_site_symmetry_multiplicity
 _atom_site_fract_x
 _atom_site_fract_y
 _atom_site_fract_z
 _atom_site_occupancy
  Ni  Ni0  1  0.14391400  0.14391400  0.14391400  1
  Ni  Ni1  1  0.35422500  0.35422500  0.35422500  1
  Ni  Ni2  1  0.64680200  0.64680200  0.64680200  1
  Cu  Cu3  1  0.99611000  0.99611000  0.99611000  1
  Cu  Cu4  1  0.49947100  0.49947100  0.49947100  1
  C  C5  1  0.85569900  0.85569900  0.85569900  1
  C  C6  1  0.54234300  0.25035900  0.95716400  1
  C  C7  1  0.95716400  0.54234300  0.25035900  1
  C  C8  1  0.25035900  0.95716400  0.54234300  1
  C  C9  1  0.75154000  0.04390400  0.45858500  1
  C  C10  1  0.04390400  0.45858500  0.75154000  1
  C  C11  1  0.45858500  0.75154000  0.04390400  1
  C  C12  1  0.31350700  0.11919900  0.49377400  1
  C  C13  1  0.49377400  0.31350700  0.11919900  1
  C  C14  1  0.91392000  0.05846800  0.26278600  1
  C  C15  1  0.11919900  0.49377400  0.31350700  1
  C  C16  1  0.80591400  0.01262400  0.61422300  1
  C  C17  1  0.58396200  0.23581700  0.43569700  1
  C  C18  1  0.05846800  0.26278600  0.91392000  1
  C  C19  1  0.23581700  0.43569700  0.58396200  1
  C  C20  1  0.37748600  0.19389300  0.99990500  1
  C  C21  1  0.43569700  0.58396200  0.23581700  1
  C  C22  1  0.73311500  0.09052500  0.94616900  1
  C  C23  1  0.99990500  0.37748600  0.19389300  1
  C  C24  1  0.01262400  0.61422300  0.80591400  1
  C  C25  1  0.26278600  0.91392000  0.05846800  1
  C  C26  1  0.55423800  0.41740700  0.76525400  1
  C  C27  1  0.61422300  0.80591400  0.01262400  1
  C  C28  1  0.76525400  0.55423800  0.41740700  1
  C  C29  1  0.94616900  0.73311500  0.09052500  1
  C  C30  1  0.41740700  0.76525400  0.55423800  1
  C  C31  1  0.19389300  0.99990500  0.37748600  1
  C  C32  1  0.87845700  0.50016100  0.69338500  1
  C  C33  1  0.09052500  0.94616900  0.73311500  1
  C  C34  1  0.50016100  0.69338500  0.87845700  1
  C  C35  1  0.69338500  0.87845700  0.50016100  1
