# generated using pymatgen
data_Cu3NiC3
_symmetry_space_group_name_H-M   'P 1'
_cell_length_a   9.00727000
_cell_length_b   9.00727000
_cell_length_c   9.00727000
_cell_angle_alpha   90.00000000
_cell_angle_beta   90.00000000
_cell_angle_gamma   90.00000000
_symmetry_Int_Tables_number   1
_chemical_formula_structural   Cu3NiC3
_chemical_formula_sum   'Cu12 Ni4 C12'
_cell_volume   730.76803741
_cell_formula_units_Z   4
loop_
 _symmetry_equiv_pos_site_id
 _symmetry_equiv_pos_as_xyz
  1  'x, y, z'
loop_
 _atom_site_type_symbol
 _atom_site_label
 _atom_site_symmetry_multiplicity
 _atom_site_fract_x
 _atom_site_fract_y
 _atom_site_fract_z
 _atom_site_occupancy
  C  C0  1  0.82125000  0.17875000  0.67875000  1
  C  C1  1  0.67875000  0.82125000  0.17875000  1
  C  C2  1  0.17875000  0.67875000  0.82125000  1
  C  C3  1  0.32125000  0.32125000  0.32125000  1
  C  C4  1  0.18664900  0.31335100  0.68664900  1
  C  C5  1  0.31335100  0.68664900  0.18664900  1
  C  C6  1  0.68664900  0.18664900  0.31335100  1
  C  C7  1  0.81335100  0.81335100  0.81335100  1
  C  C8  1  0.41368300  0.08631700  0.91368300  1
  C  C9  1  0.08631700  0.91368300  0.41368300  1
  C  C10  1  0.91368300  0.41368300  0.08631700  1
  C  C11  1  0.58631700  0.58631700  0.58631700  1
  Ni  Ni12  1  0.02872500  0.02872500  0.02872500  1
  Ni  Ni13  1  0.47127500  0.97127500  0.52872500  1
  Ni  Ni14  1  0.97127500  0.52872500  0.47127500  1
  Ni  Ni15  1  0.52872500  0.47127500  0.97127500  1
  Cu  Cu16  1  0.27244700  0.38958900  0.99972000  1
  Cu  Cu17  1  0.77244700  0.11041100  0.00028000  1
  Cu  Cu18  1  0.72755300  0.88958900  0.50028000  1
  Cu  Cu19  1  0.11041100  0.00028000  0.77244700  1
  Cu  Cu20  1  0.50028000  0.72755300  0.88958900  1
  Cu  Cu21  1  0.00028000  0.77244700  0.11041100  1
  Cu  Cu22  1  0.38958900  0.99972000  0.27244700  1
  Cu  Cu23  1  0.99972000  0.27244700  0.38958900  1
  Cu  Cu24  1  0.88958900  0.50028000  0.72755300  1
  Cu  Cu25  1  0.61041100  0.49972000  0.22755300  1
  Cu  Cu26  1  0.49972000  0.22755300  0.61041100  1
  Cu  Cu27  1  0.22755300  0.61041100  0.49972000  1
