# generated using pymatgen
data_Cu11NiC3
_symmetry_space_group_name_H-M   'P 1'
_cell_length_a   5.19886400
_cell_length_b   5.35095559
_cell_length_c   15.02915496
_cell_angle_alpha   100.25416687
_cell_angle_beta   89.72523060
_cell_angle_gamma   91.63389818
_symmetry_Int_Tables_number   1
_chemical_formula_structural   Cu11NiC3
_chemical_formula_sum   'Cu22 Ni2 C6'
_cell_volume   411.24921725
_cell_formula_units_Z   2
loop_
 _symmetry_equiv_pos_site_id
 _symmetry_equiv_pos_as_xyz
  1  'x, y, z'
loop_
 _atom_site_type_symbol
 _atom_site_label
 _atom_site_symmetry_multiplicity
 _atom_site_fract_x
 _atom_site_fract_y
 _atom_site_fract_z
 _atom_site_occupancy
  C  C0  1  0.00000000  0.00000000  0.00000000  1
  C  C1  1  0.50008400  0.50050000  0.33324100  1
  C  C2  1  0.00014400  0.99952800  0.66677600  1
  C  C3  1  0.50000000  0.50000000  0.00000000  1
  C  C4  1  0.99985600  0.00047200  0.33322400  1
  C  C5  1  0.49991600  0.49950000  0.66675900  1
  Ni  Ni6  1  0.23155400  0.28627700  0.98730600  1
  Ni  Ni7  1  0.76844600  0.71372300  0.01269400  1
  Cu  Cu8  1  0.18666400  0.35275000  0.63760100  1
  Cu  Cu9  1  0.27303600  0.81172600  0.97322800  1
  Cu  Cu10  1  0.69022300  0.15762600  0.69007200  1
  Cu  Cu11  1  0.07481600  0.81044900  0.11767100  1
  Cu  Cu12  1  0.40706800  0.34077000  0.44834700  1
  Cu  Cu13  1  0.09176700  0.85685700  0.78112900  1
  Cu  Cu14  1  0.59091900  0.66258600  0.21856900  1
  Cu  Cu15  1  0.90796600  0.14340700  0.55185200  1
  Cu  Cu16  1  0.57391600  0.64969600  0.88255600  1
  Cu  Cu17  1  0.18650300  0.35242800  0.30501000  1
  Cu  Cu18  1  0.31031300  0.84170000  0.64292100  1
  Cu  Cu19  1  0.68968700  0.15830000  0.35707900  1
  Cu  Cu20  1  0.81349700  0.64757200  0.69499000  1
  Cu  Cu21  1  0.42608400  0.35030400  0.11744400  1
  Cu  Cu22  1  0.09203400  0.85659300  0.44814800  1
  Cu  Cu23  1  0.40908100  0.33741400  0.78143100  1
  Cu  Cu24  1  0.90823300  0.14314300  0.21887100  1
  Cu  Cu25  1  0.59293200  0.65923000  0.55165300  1
  Cu  Cu26  1  0.92518400  0.18955100  0.88232900  1
  Cu  Cu27  1  0.30977700  0.84237400  0.30992800  1
  Cu  Cu28  1  0.72696400  0.18827400  0.02677200  1
  Cu  Cu29  1  0.81333600  0.64725000  0.36239900  1
