# generated using pymatgen
data_Cu3NiC2
_symmetry_space_group_name_H-M   'P 1'
_cell_length_a   6.03599834
_cell_length_b   6.03599834
_cell_length_c   7.11659100
_cell_angle_alpha   90.00000000
_cell_angle_beta   90.00000000
_cell_angle_gamma   120.00000375
_symmetry_Int_Tables_number   1
_chemical_formula_structural   Cu3NiC2
_chemical_formula_sum   'Cu6 Ni2 C4'
_cell_volume   224.54368519
_cell_formula_units_Z   2
loop_
 _symmetry_equiv_pos_site_id
 _symmetry_equiv_pos_as_xyz
  1  'x, y, z'
loop_
 _atom_site_type_symbol
 _atom_site_label
 _atom_site_symmetry_multiplicity
 _atom_site_fract_x
 _atom_site_fract_y
 _atom_site_fract_z
 _atom_site_occupancy
  C  C0  1  0.33333300  0.66666700  0.67734600  1
  C  C1  1  0.66666700  0.33333300  0.32265400  1
  C  C2  1  0.00000000  0.00000000  0.50000000  1
  C  C3  1  0.00000000  0.00000000  0.00000000  1
  Ni  Ni4  1  0.33333300  0.66666700  0.18129100  1
  Ni  Ni5  1  0.66666700  0.33333300  0.81870900  1
  Cu  Cu6  1  0.39574000  0.19787000  0.73225500  1
  Cu  Cu7  1  0.80213000  0.19787000  0.73225500  1
  Cu  Cu8  1  0.80213000  0.60426000  0.73225500  1
  Cu  Cu9  1  0.19787000  0.39574000  0.26774500  1
  Cu  Cu10  1  0.60426000  0.80213000  0.26774500  1
  Cu  Cu11  1  0.19787000  0.80213000  0.26774500  1
