# generated using pymatgen
data_Cu2Ni3C19
_symmetry_space_group_name_H-M   'P 1'
_cell_length_a   5.83081300
_cell_length_b   5.84395523
_cell_length_c   9.27510752
_cell_angle_alpha   90.52796718
_cell_angle_beta   89.89269283
_cell_angle_gamma   119.55006993
_symmetry_Int_Tables_number   1
_chemical_formula_structural   Cu2Ni3C19
_chemical_formula_sum   'Cu2 Ni3 C19'
_cell_volume   274.92630328
_cell_formula_units_Z   1
loop_
 _symmetry_equiv_pos_site_id
 _symmetry_equiv_pos_as_xyz
  1  'x, y, z'
loop_
 _atom_site_type_symbol
 _atom_site_label
 _atom_site_symmetry_multiplicity
 _atom_site_fract_x
 _atom_site_fract_y
 _atom_site_fract_z
 _atom_site_occupancy
  C  C0  1  0.33719400  0.17127700  0.21253100  1
  C  C1  1  0.17005000  0.33748500  0.71407200  1
  C  C2  1  0.17090500  0.83208200  0.71337200  1
  Ni  Ni3  1  0.83319500  0.17621800  0.21549200  1
  Ni  Ni4  1  0.82902800  0.66956600  0.20690400  1
  Ni  Ni5  1  0.66715300  0.83392000  0.70929900  1
  Cu  Cu6  1  0.67193500  0.33401600  0.48966800  1
  Cu  Cu7  1  0.33712200  0.67139500  0.99199100  1
  C  C8  1  0.83800200  0.16663100  0.60153900  1
  C  C9  1  0.96386500  0.46661500  0.33629800  1
  C  C10  1  0.66304700  0.31630300  0.10874600  1
  C  C11  1  0.00038300  0.01687400  0.30713100  1
  C  C12  1  0.01180300  0.00712400  0.81060200  1
  C  C13  1  0.84044900  0.67109000  0.59801600  1
  C  C14  1  0.52154200  0.03705700  0.33357400  1
  C  C15  1  0.51368800  0.47188500  0.34032900  1
  C  C16  1  0.67582500  0.84500100  0.09940700  1
  C  C17  1  0.33052000  0.16220900  0.60146400  1
  C  C18  1  0.47113800  0.50979600  0.84093200  1
  C  C19  1  0.46956900  0.96035500  0.83957600  1
  C  C20  1  0.31663900  0.65555100  0.60649400  1
  C  C21  1  0.16418500  0.32938900  0.10078900  1
  C  C22  1  0.03583500  0.51998900  0.83539400  1
  C  C23  1  0.16692800  0.83797300  0.10209700  1
