# generated using pymatgen
data_Cu12Ni3C4
_symmetry_space_group_name_H-M   'P 1'
_cell_length_a   8.78587700
_cell_length_b   8.90339000
_cell_length_c   24.38849100
_cell_angle_alpha   90.00000000
_cell_angle_beta   90.00000000
_cell_angle_gamma   90.00000000
_symmetry_Int_Tables_number   1
_chemical_formula_structural   Cu12Ni3C4
_chemical_formula_sum   'Cu96 Ni24 C32'
_cell_volume   1907.76750088
_cell_formula_units_Z   8
loop_
 _symmetry_equiv_pos_site_id
 _symmetry_equiv_pos_as_xyz
  1  'x, y, z'
loop_
 _atom_site_type_symbol
 _atom_site_label
 _atom_site_symmetry_multiplicity
 _atom_site_fract_x
 _atom_site_fract_y
 _atom_site_fract_z
 _atom_site_occupancy
  C  C0  1  0.03723300  0.62237500  0.29070500  1
  C  C1  1  0.03723300  0.87762500  0.79070500  1
  C  C2  1  0.14428100  0.93160000  0.00950400  1
  C  C3  1  0.14428100  0.56840000  0.50950400  1
  C  C4  1  0.35571900  0.06840000  0.50950400  1
  C  C5  1  0.35571900  0.43160000  0.00950400  1
  C  C6  1  0.46276700  0.12237500  0.29070500  1
  C  C7  1  0.46276700  0.37762500  0.79070500  1
  C  C8  1  0.53723300  0.62237500  0.20929500  1
  C  C9  1  0.53723300  0.87762500  0.70929500  1
  C  C10  1  0.64428100  0.56840000  0.99049600  1
  C  C11  1  0.64428100  0.93160000  0.49049600  1
  C  C12  1  0.85571900  0.43160000  0.49049600  1
  C  C13  1  0.85571900  0.06840000  0.99049600  1
  C  C14  1  0.96276700  0.12237500  0.20929500  1
  C  C15  1  0.96276700  0.37762500  0.70929500  1
  C  C16  1  0.00329200  0.40035500  0.06281600  1
  C  C17  1  0.00329200  0.09964500  0.56281600  1
  C  C18  1  0.99831100  0.79652600  0.17947200  1
  C  C19  1  0.99831100  0.70347400  0.67947200  1
  C  C20  1  0.50168900  0.29652600  0.17947200  1
  C  C21  1  0.50168900  0.20347400  0.67947200  1
  C  C22  1  0.49670800  0.59964500  0.56281600  1
  C  C23  1  0.49670800  0.90035500  0.06281600  1
  C  C24  1  0.50329200  0.40035500  0.43718400  1
  C  C25  1  0.50329200  0.09964500  0.93718400  1
  C  C26  1  0.49831100  0.70347400  0.82052800  1
  C  C27  1  0.49831100  0.79652600  0.32052800  1
  C  C28  1  0.00168900  0.29652600  0.32052800  1
  C  C29  1  0.00168900  0.20347400  0.82052800  1
  C  C30  1  0.99670800  0.90035500  0.43718400  1
  C  C31  1  0.99670800  0.59964500  0.93718400  1
  Ni  Ni32  1  0.14410700  0.94670000  0.29952900  1
  Ni  Ni33  1  0.14410700  0.55330000  0.79952900  1
  Ni  Ni34  1  0.14863200  0.25410300  0.44797200  1
  Ni  Ni35  1  0.14863200  0.24589700  0.94797200  1
  Ni  Ni36  1  0.19499500  0.09312500  0.11632600  1
  Ni  Ni37  1  0.19499500  0.40687500  0.61632600  1
  Ni  Ni38  1  0.30500500  0.59312500  0.11632600  1
  Ni  Ni39  1  0.30500500  0.90687500  0.61632600  1
  Ni  Ni40  1  0.35136800  0.75410300  0.44797200  1
  Ni  Ni41  1  0.35136800  0.74589700  0.94797200  1
  Ni  Ni42  1  0.35589300  0.44670000  0.29952900  1
  Ni  Ni43  1  0.35589300  0.05330000  0.79952900  1
  Ni  Ni44  1  0.64410700  0.55330000  0.70047100  1
  Ni  Ni45  1  0.64410700  0.94670000  0.20047100  1
  Ni  Ni46  1  0.64863200  0.25410300  0.05202800  1
  Ni  Ni47  1  0.64863200  0.24589700  0.55202800  1
  Ni  Ni48  1  0.69499500  0.09312500  0.38367400  1
  Ni  Ni49  1  0.69499500  0.40687500  0.88367400  1
  Ni  Ni50  1  0.80500500  0.59312500  0.38367400  1
  Ni  Ni51  1  0.80500500  0.90687500  0.88367400  1
  Ni  Ni52  1  0.85136800  0.75410300  0.05202800  1
  Ni  Ni53  1  0.85136800  0.74589700  0.55202800  1
  Ni  Ni54  1  0.85589300  0.44670000  0.20047100  1
  Ni  Ni55  1  0.85589300  0.05330000  0.70047100  1
  Cu  Cu56  1  0.06524000  0.38948200  0.46566800  1
  Cu  Cu57  1  0.06524000  0.11051800  0.96566800  1
  Cu  Cu58  1  0.08260700  0.09253500  0.27874800  1
  Cu  Cu59  1  0.08260700  0.40746500  0.77874800  1
  Cu  Cu60  1  0.08435400  0.11376600  0.47590400  1
  Cu  Cu61  1  0.08435400  0.38623400  0.97590400  1
  Cu  Cu62  1  0.08897900  0.91323900  0.35479500  1
  Cu  Cu63  1  0.08897900  0.58676100  0.85479500  1
  Cu  Cu64  1  0.09432800  0.18853100  0.08306500  1
  Cu  Cu65  1  0.09432800  0.31146900  0.58306500  1
  Cu  Cu66  1  0.09387100  0.82266200  0.26206400  1
  Cu  Cu67  1  0.09387100  0.67733800  0.76206400  1
  Cu  Cu68  1  0.09801300  0.01034700  0.15691800  1
  Cu  Cu69  1  0.09801300  0.48965300  0.65691800  1
  Cu  Cu70  1  0.13973400  0.23137300  0.38854600  1
  Cu  Cu71  1  0.13973400  0.26862700  0.88854600  1
  Cu  Cu72  1  0.18588100  0.45512600  0.29774200  1
  Cu  Cu73  1  0.18588100  0.04487400  0.79774200  1
  Cu  Cu74  1  0.18964700  0.67881000  0.14634200  1
  Cu  Cu75  1  0.18964700  0.82119000  0.64634200  1
  Cu  Cu76  1  0.18957600  0.76319200  0.46651300  1
  Cu  Cu77  1  0.18957600  0.73680800  0.96651300  1
  Cu  Cu78  1  0.23164700  0.01677500  0.57764300  1
  Cu  Cu79  1  0.23164700  0.48322500  0.07764300  1
  Cu  Cu80  1  0.26835300  0.98322500  0.07764300  1
  Cu  Cu81  1  0.26835300  0.51677500  0.57764300  1
  Cu  Cu82  1  0.31042400  0.23680800  0.96651300  1
  Cu  Cu83  1  0.31042400  0.26319200  0.46651300  1
  Cu  Cu84  1  0.31035300  0.17881000  0.14634200  1
  Cu  Cu85  1  0.31035300  0.32119000  0.64634200  1
  Cu  Cu86  1  0.31411900  0.95512600  0.29774200  1
  Cu  Cu87  1  0.31411900  0.54487400  0.79774200  1
  Cu  Cu88  1  0.36026600  0.73137300  0.38854600  1
  Cu  Cu89  1  0.36026600  0.76862700  0.88854600  1
  Cu  Cu90  1  0.40198700  0.51034700  0.15691800  1
  Cu  Cu91  1  0.40198700  0.98965300  0.65691800  1
  Cu  Cu92  1  0.40612900  0.32266200  0.26206400  1
  Cu  Cu93  1  0.40612900  0.17733800  0.76206400  1
  Cu  Cu94  1  0.40567200  0.68853100  0.08306500  1
  Cu  Cu95  1  0.40567200  0.81146900  0.58306500  1
  Cu  Cu96  1  0.41102100  0.08676100  0.85479500  1
  Cu  Cu97  1  0.41102100  0.41323900  0.35479500  1
  Cu  Cu98  1  0.41564600  0.61376600  0.47590400  1
  Cu  Cu99  1  0.41564600  0.88623400  0.97590400  1
  Cu  Cu100  1  0.41739300  0.59253500  0.27874800  1
  Cu  Cu101  1  0.41739300  0.90746500  0.77874800  1
  Cu  Cu102  1  0.43476000  0.61051800  0.96566800  1
  Cu  Cu103  1  0.43476000  0.88948200  0.46566800  1
  Cu  Cu104  1  0.56524000  0.38948200  0.03433200  1
  Cu  Cu105  1  0.56524000  0.11051800  0.53433200  1
  Cu  Cu106  1  0.58260700  0.09253500  0.22125200  1
  Cu  Cu107  1  0.58260700  0.40746500  0.72125200  1
  Cu  Cu108  1  0.58435400  0.11376600  0.02409600  1
  Cu  Cu109  1  0.58435400  0.38623400  0.52409600  1
  Cu  Cu110  1  0.58897900  0.58676100  0.64520500  1
  Cu  Cu111  1  0.58897900  0.91323900  0.14520500  1
  Cu  Cu112  1  0.59432800  0.18853100  0.41693500  1
  Cu  Cu113  1  0.59432800  0.31146900  0.91693500  1
  Cu  Cu114  1  0.59387100  0.82266200  0.23793600  1
  Cu  Cu115  1  0.59387100  0.67733800  0.73793600  1
  Cu  Cu116  1  0.59801300  0.01034700  0.34308200  1
  Cu  Cu117  1  0.59801300  0.48965300  0.84308200  1
  Cu  Cu118  1  0.63973400  0.23137300  0.11145400  1
  Cu  Cu119  1  0.63973400  0.26862700  0.61145400  1
  Cu  Cu120  1  0.68588100  0.45512600  0.20225800  1
  Cu  Cu121  1  0.68588100  0.04487400  0.70225800  1
  Cu  Cu122  1  0.68964700  0.67881000  0.35365800  1
  Cu  Cu123  1  0.68964700  0.82119000  0.85365800  1
  Cu  Cu124  1  0.68957600  0.76319200  0.03348700  1
  Cu  Cu125  1  0.68957600  0.73680800  0.53348700  1
  Cu  Cu126  1  0.73164700  0.48322500  0.42235700  1
  Cu  Cu127  1  0.73164700  0.01677500  0.92235700  1
  Cu  Cu128  1  0.76835300  0.98322500  0.42235700  1
  Cu  Cu129  1  0.76835300  0.51677500  0.92235700  1
  Cu  Cu130  1  0.81042400  0.26319200  0.03348700  1
  Cu  Cu131  1  0.81042400  0.23680800  0.53348700  1
  Cu  Cu132  1  0.81035300  0.17881000  0.35365800  1
  Cu  Cu133  1  0.81035300  0.32119000  0.85365800  1
  Cu  Cu134  1  0.81411900  0.54487400  0.70225800  1
  Cu  Cu135  1  0.81411900  0.95512600  0.20225800  1
  Cu  Cu136  1  0.86026600  0.73137300  0.11145400  1
  Cu  Cu137  1  0.86026600  0.76862700  0.61145400  1
  Cu  Cu138  1  0.90198700  0.51034700  0.34308200  1
  Cu  Cu139  1  0.90198700  0.98965300  0.84308200  1
  Cu  Cu140  1  0.90612900  0.32266200  0.23793600  1
  Cu  Cu141  1  0.90612900  0.17733800  0.73793600  1
  Cu  Cu142  1  0.90567200  0.68853100  0.41693500  1
  Cu  Cu143  1  0.90567200  0.81146900  0.91693500  1
  Cu  Cu144  1  0.91102100  0.41323900  0.14520500  1
  Cu  Cu145  1  0.91102100  0.08676100  0.64520500  1
  Cu  Cu146  1  0.91564600  0.61376600  0.02409600  1
  Cu  Cu147  1  0.91564600  0.88623400  0.52409600  1
  Cu  Cu148  1  0.91739300  0.59253500  0.22125200  1
  Cu  Cu149  1  0.91739300  0.90746500  0.72125200  1
  Cu  Cu150  1  0.93476000  0.61051800  0.53433200  1
  Cu  Cu151  1  0.93476000  0.88948200  0.03433200  1
