# generated using pymatgen
data_Cu17Ni7C12
_symmetry_space_group_name_H-M   'P 1'
_cell_length_a   4.84262500
_cell_length_b   5.82236708
_cell_length_c   15.82110378
_cell_angle_alpha   88.81960648
_cell_angle_beta   89.23430984
_cell_angle_gamma   84.79961612
_symmetry_Int_Tables_number   1
_chemical_formula_structural   Cu17Ni7C12
_chemical_formula_sum   'Cu17 Ni7 C12'
_cell_volume   444.12451266
_cell_formula_units_Z   1
loop_
 _symmetry_equiv_pos_site_id
 _symmetry_equiv_pos_as_xyz
  1  'x, y, z'
loop_
 _atom_site_type_symbol
 _atom_site_label
 _atom_site_symmetry_multiplicity
 _atom_site_fract_x
 _atom_site_fract_y
 _atom_site_fract_z
 _atom_site_occupancy
  C  C0  1  0.00301700  0.82311700  0.41681400  1
  C  C1  1  0.96790300  0.16645600  0.24517100  1
  C  C2  1  0.00415100  0.84638700  0.08429700  1
  C  C3  1  0.99491400  0.84887800  0.74669600  1
  C  C4  1  0.99181500  0.18299500  0.58320400  1
  C  C5  1  0.98998400  0.17073000  0.90471800  1
  C  C6  1  0.48980400  0.64877600  0.59546200  1
  C  C7  1  0.49148500  0.67270500  0.92689700  1
  C  C8  1  0.50532200  0.64789700  0.25702600  1
  C  C9  1  0.49285000  0.33654700  0.08424600  1
  C  C10  1  0.49110700  0.34929000  0.40696300  1
  C  C11  1  0.51323800  0.34851300  0.74695700  1
  Ni  Ni12  1  0.77769500  0.11292700  0.13377400  1
  Ni  Ni13  1  0.77615100  0.11126200  0.79590600  1
  Ni  Ni14  1  0.71768500  0.39293700  0.30890000  1
  Ni  Ni15  1  0.70731500  0.39528600  0.64266500  1
  Ni  Ni16  1  0.27496000  0.60912500  0.03661600  1
  Ni  Ni17  1  0.28651500  0.60949100  0.35733800  1
  Ni  Ni18  1  0.26636700  0.60961200  0.69657800  1
  Cu  Cu19  1  0.76333300  0.89030500  0.30723100  1
  Cu  Cu20  1  0.77689000  0.89020600  0.63781900  1
  Cu  Cu21  1  0.78663200  0.88664700  0.97437900  1
  Cu  Cu22  1  0.75695400  0.12158200  0.46842200  1
  Cu  Cu23  1  0.73500900  0.61838500  0.14999700  1
  Cu  Cu24  1  0.72322000  0.62036500  0.48798100  1
  Cu  Cu25  1  0.75042900  0.61842900  0.81586000  1
  Cu  Cu26  1  0.73140000  0.38196100  0.98047900  1
  Cu  Cu27  1  0.27310200  0.37202300  0.19054000  1
  Cu  Cu28  1  0.26698400  0.38370100  0.51438200  1
  Cu  Cu29  1  0.30077800  0.37919800  0.85657100  1
  Cu  Cu30  1  0.23496700  0.87492000  0.19624900  1
  Cu  Cu31  1  0.23792200  0.88104700  0.53169900  1
  Cu  Cu32  1  0.21365600  0.10957000  0.35618800  1
  Cu  Cu33  1  0.24095000  0.10449700  0.01868200  1
  Cu  Cu34  1  0.22811400  0.88128200  0.85287900  1
  Cu  Cu35  1  0.23738300  0.10295300  0.69041300  1
