# generated using pymatgen
data_Cu3NiC40
_symmetry_space_group_name_H-M   'P 1'
_cell_length_a   7.16518100
_cell_length_b   8.29770053
_cell_length_c   9.74684840
_cell_angle_alpha   90.31201349
_cell_angle_beta   111.17487089
_cell_angle_gamma   90.37689937
_symmetry_Int_Tables_number   1
_chemical_formula_structural   Cu3NiC40
_chemical_formula_sum   'Cu3 Ni1 C40'
_cell_volume   540.33744069
_cell_formula_units_Z   1
loop_
 _symmetry_equiv_pos_site_id
 _symmetry_equiv_pos_as_xyz
  1  'x, y, z'
loop_
 _atom_site_type_symbol
 _atom_site_label
 _atom_site_symmetry_multiplicity
 _atom_site_fract_x
 _atom_site_fract_y
 _atom_site_fract_z
 _atom_site_occupancy
  C  C0  1  0.32537800  0.36090500  0.75167600  1
  C  C1  1  0.67451800  0.86166000  0.74860100  1
  C  C2  1  0.32477900  0.36045800  0.25073900  1
  C  C3  1  0.67445900  0.86221400  0.25029800  1
  Ni  Ni4  1  0.26815600  0.99907100  0.24170500  1
  Cu  Cu5  1  0.27160600  0.99971100  0.74347300  1
  Cu  Cu6  1  0.72800000  0.49968000  0.75595700  1
  Cu  Cu7  1  0.72729700  0.49945700  0.25671600  1
  C  C8  1  0.08676300  0.78431400  0.93692400  1
  C  C9  1  0.47802900  0.68086900  0.93906500  1
  C  C10  1  0.52169200  0.17885700  0.56034200  1
  C  C11  1  0.08795000  0.78306800  0.43632600  1
  C  C12  1  0.91414000  0.28392500  0.56333300  1
  C  C13  1  0.48187700  0.68019300  0.44015900  1
  C  C14  1  0.52271200  0.17894100  0.06101300  1
  C  C15  1  0.91319600  0.28771500  0.06210500  1
  C  C16  1  0.24648200  0.65365900  0.92128500  1
  C  C17  1  0.08526700  0.93347600  0.84464400  1
  C  C18  1  0.39558300  0.17645800  0.89580500  1
  C  C19  1  0.49392800  0.84371600  0.87076200  1
  C  C20  1  0.51658600  0.53886500  0.85162100  1
  C  C21  1  0.84604000  0.32677400  0.89904800  1
  C  C22  1  0.88592600  0.69657200  0.87604800  1
  C  C23  1  0.11375200  0.19661400  0.62366600  1
  C  C24  1  0.14891400  0.82475200  0.59917300  1
  C  C25  1  0.48166100  0.03815500  0.64752100  1
  C  C26  1  0.50628000  0.34230000  0.62888800  1
  C  C27  1  0.60480000  0.67467600  0.60596100  1
  C  C28  1  0.91691800  0.43344100  0.65797000  1
  C  C29  1  0.75215500  0.15243100  0.57818900  1
  C  C30  1  0.24910300  0.65457400  0.42094900  1
  C  C31  1  0.08491500  0.93365300  0.34301600  1
  C  C32  1  0.39194300  0.17632700  0.39500400  1
  C  C33  1  0.50548100  0.84199900  0.37584600  1
  C  C34  1  0.51782100  0.53612600  0.35296200  1
  C  C35  1  0.85144700  0.32440600  0.40080700  1
  C  C36  1  0.88732400  0.69500000  0.37763100  1
  C  C37  1  0.11461100  0.20481500  0.11989000  1
  C  C38  1  0.14449700  0.82421700  0.10103700  1
  C  C39  1  0.48127600  0.03607500  0.14642100  1
  C  C40  1  0.50588900  0.34222800  0.12902400  1
  C  C41  1  0.60480500  0.67801200  0.10400500  1
  C  C42  1  0.91283200  0.43688600  0.15650900  1
  C  C43  1  0.75321400  0.15391400  0.07788200  1
