# generated using pymatgen
data_Cu9Ni15C32
_symmetry_space_group_name_H-M   'P 1'
_cell_length_a   5.81336900
_cell_length_b   5.85072851
_cell_length_c   19.30884402
_cell_angle_alpha   98.34049477
_cell_angle_beta   90.05283041
_cell_angle_gamma   119.75135302
_symmetry_Int_Tables_number   1
_chemical_formula_structural   Cu9Ni15C32
_chemical_formula_sum   'Cu9 Ni15 C32'
_cell_volume   562.10817467
_cell_formula_units_Z   1
loop_
 _symmetry_equiv_pos_site_id
 _symmetry_equiv_pos_as_xyz
  1  'x, y, z'
loop_
 _atom_site_type_symbol
 _atom_site_label
 _atom_site_symmetry_multiplicity
 _atom_site_fract_x
 _atom_site_fract_y
 _atom_site_fract_z
 _atom_site_occupancy
  Ni  Ni0  1  0.50000000  0.50000000  0.00000000  1
  Ni  Ni1  1  0.25272200  0.00256400  0.74920500  1
  Ni  Ni2  1  0.12218700  0.49474000  0.12569800  1
  Ni  Ni3  1  0.87781300  0.50526000  0.87430200  1
  Ni  Ni4  1  0.00000000  0.50000000  0.00000000  1
  Ni  Ni5  1  0.75145700  0.50139300  0.74955200  1
  Ni  Ni6  1  0.25164300  0.50157600  0.74964600  1
  Ni  Ni7  1  0.62544800  0.50060900  0.62472700  1
  Ni  Ni8  1  0.24854300  0.49860700  0.25044800  1
  Ni  Ni9  1  0.00000000  0.50000000  0.50000000  1
  Ni  Ni10  1  0.50000000  0.50000000  0.50000000  1
  Ni  Ni11  1  0.74727800  0.99743600  0.25079500  1
  Ni  Ni12  1  0.00000000  0.00000000  0.50000000  1
  Ni  Ni13  1  0.37455200  0.49939100  0.37527300  1
  Ni  Ni14  1  0.74835700  0.49842400  0.25035400  1
  Cu  Cu15  1  0.84385000  0.87487900  0.09330100  1
  Cu  Cu16  1  0.50000000  0.00000000  0.00000000  1
  Cu  Cu17  1  0.15615000  0.12512100  0.90669900  1
  Cu  Cu18  1  0.34563100  0.87745600  0.59304600  1
  Cu  Cu19  1  0.59615000  0.87839200  0.84292600  1
  Cu  Cu20  1  0.65436900  0.12254400  0.40695400  1
  Cu  Cu21  1  0.90452300  0.12263300  0.65664700  1
  Cu  Cu22  1  0.09547700  0.87736700  0.34335300  1
  Cu  Cu23  1  0.40385000  0.12160800  0.15707400  1
  C  C24  1  0.52285200  0.72263000  0.05995100  1
  C  C25  1  0.08637500  0.29189800  0.05939900  1
  C  C26  1  0.58497000  0.27051500  0.05081800  1
  C  C27  1  0.91362500  0.70810200  0.94060100  1
  C  C28  1  0.47714800  0.27737000  0.94004900  1
  C  C29  1  0.91949100  0.27679200  0.94004300  1
  C  C30  1  0.08050900  0.72320800  0.05995700  1
  C  C31  1  0.84255000  0.73840200  0.80747800  1
  C  C32  1  0.58966500  0.29790800  0.55904300  1
  C  C33  1  0.84233300  0.29985600  0.80818600  1
  C  C34  1  0.41503000  0.72948500  0.94918200  1
  C  C35  1  0.17138400  0.73838400  0.69859700  1
  C  C36  1  0.33242300  0.26519700  0.80049900  1
  C  C37  1  0.66326200  0.26825900  0.69110000  1
  C  C38  1  0.22230700  0.26731400  0.69141400  1
  C  C39  1  0.97130200  0.26618800  0.44184000  1
  C  C40  1  0.02869800  0.73381200  0.55816000  1
  C  C41  1  0.28032900  0.73731300  0.80787400  1
  C  C42  1  0.58854800  0.73345200  0.55818800  1
  C  C43  1  0.91987300  0.73667600  0.44901200  1
  C  C44  1  0.08012700  0.26332400  0.55098800  1
  C  C45  1  0.66144000  0.70289300  0.69058500  1
  C  C46  1  0.82861600  0.26161600  0.30140300  1
  C  C47  1  0.41033500  0.70209200  0.44095700  1
  C  C48  1  0.41145200  0.26654800  0.44181200  1
  C  C49  1  0.15745000  0.26159800  0.19252200  1
  C  C50  1  0.77769300  0.73268600  0.30858600  1
  C  C51  1  0.33673800  0.73174100  0.30890000  1
  C  C52  1  0.33856000  0.29710700  0.30941500  1
  C  C53  1  0.66757700  0.73480300  0.19950100  1
  C  C54  1  0.15766700  0.70014400  0.19181400  1
  C  C55  1  0.71967100  0.26268700  0.19212600  1
