# generated using pymatgen
data_Cu4(NiC3)3
_symmetry_space_group_name_H-M   'P 1'
_cell_length_a   9.26097265
_cell_length_b   9.26097265
_cell_length_c   9.26097213
_cell_angle_alpha   38.79251864
_cell_angle_beta   38.79251864
_cell_angle_gamma   38.79252052
_symmetry_Int_Tables_number   1
_chemical_formula_structural   Cu4(NiC3)3
_chemical_formula_sum   'Cu4 Ni3 C9'
_cell_volume   280.25791865
_cell_formula_units_Z   1
loop_
 _symmetry_equiv_pos_site_id
 _symmetry_equiv_pos_as_xyz
  1  'x, y, z'
loop_
 _atom_site_type_symbol
 _atom_site_label
 _atom_site_symmetry_multiplicity
 _atom_site_fract_x
 _atom_site_fract_y
 _atom_site_fract_z
 _atom_site_occupancy
  Ni  Ni0  1  0.00260300  0.00260300  0.00260300  1
  Ni  Ni1  1  0.83643300  0.83643300  0.83643300  1
  Ni  Ni2  1  0.42459000  0.42459000  0.42459000  1
  Cu  Cu3  1  0.57561200  0.57561200  0.57561200  1
  Cu  Cu4  1  0.13728300  0.13728300  0.13728300  1
  Cu  Cu5  1  0.26317100  0.26317100  0.26317100  1
  Cu  Cu6  1  0.70086600  0.70086600  0.70086600  1
  C  C7  1  0.41618600  0.95889500  0.54793600  1
  C  C8  1  0.95889500  0.54793600  0.41618600  1
  C  C9  1  0.54793600  0.41618600  0.95889500  1
  C  C10  1  0.29840500  0.87437900  0.41374900  1
  C  C11  1  0.87437900  0.41374900  0.29840500  1
  C  C12  1  0.41374900  0.29840500  0.87437900  1
  C  C13  1  0.42060700  0.85494100  0.98224400  1
  C  C14  1  0.98224400  0.42060700  0.85494100  1
  C  C15  1  0.85494100  0.98224400  0.42060700  1
