# generated using pymatgen
data_CuNi3C10
_symmetry_space_group_name_H-M   'P 1'
_cell_length_a   5.98156367
_cell_length_b   5.98156367
_cell_length_c   7.66845600
_cell_angle_alpha   90.00000000
_cell_angle_beta   90.00000000
_cell_angle_gamma   119.99999638
_symmetry_Int_Tables_number   1
_chemical_formula_structural   CuNi3C10
_chemical_formula_sum   'Cu1 Ni3 C10'
_cell_volume   237.61181829
_cell_formula_units_Z   1
loop_
 _symmetry_equiv_pos_site_id
 _symmetry_equiv_pos_as_xyz
  1  'x, y, z'
loop_
 _atom_site_type_symbol
 _atom_site_label
 _atom_site_symmetry_multiplicity
 _atom_site_fract_x
 _atom_site_fract_y
 _atom_site_fract_z
 _atom_site_occupancy
  Ni  Ni0  1  0.00000000  0.00000000  0.50000000  1
  Ni  Ni1  1  0.66666700  0.33333300  0.17054700  1
  Ni  Ni2  1  0.33333300  0.66666700  0.82945300  1
  Cu  Cu3  1  0.00000000  0.00000000  0.00000000  1
  C  C4  1  0.66666700  0.33333300  0.72542300  1
  C  C5  1  0.33333300  0.66666700  0.27457700  1
  C  C6  1  0.36328800  0.18164400  0.80383800  1
  C  C7  1  0.81835600  0.18164400  0.80383800  1
  C  C8  1  0.81835600  0.63671200  0.80383800  1
  C  C9  1  0.18164400  0.81835600  0.19616200  1
  C  C10  1  0.63671200  0.81835600  0.19616200  1
  C  C11  1  0.18164400  0.36328800  0.19616200  1
  C  C12  1  0.33333300  0.66666700  0.49038700  1
  C  C13  1  0.66666700  0.33333300  0.50961300  1
