# generated using pymatgen
data_Cu4NiC11
_symmetry_space_group_name_H-M   'P 1'
_cell_length_a   5.43925900
_cell_length_b   9.62566500
_cell_length_c   13.34383500
_cell_angle_alpha   90.00000000
_cell_angle_beta   90.00000000
_cell_angle_gamma   90.00000000
_symmetry_Int_Tables_number   1
_chemical_formula_structural   Cu4NiC11
_chemical_formula_sum   'Cu16 Ni4 C44'
_cell_volume   698.63629678
_cell_formula_units_Z   4
loop_
 _symmetry_equiv_pos_site_id
 _symmetry_equiv_pos_as_xyz
  1  'x, y, z'
loop_
 _atom_site_type_symbol
 _atom_site_label
 _atom_site_symmetry_multiplicity
 _atom_site_fract_x
 _atom_site_fract_y
 _atom_site_fract_z
 _atom_site_occupancy
  C  C0  1  0.48328200  0.02191400  0.12970700  1
  C  C1  1  0.48328200  0.02191400  0.37029300  1
  C  C2  1  0.98328200  0.47808600  0.62970700  1
  C  C3  1  0.98328200  0.47808600  0.87029300  1
  C  C4  1  0.01671800  0.52191400  0.12970700  1
  C  C5  1  0.01671800  0.52191400  0.37029300  1
  C  C6  1  0.51671800  0.97808600  0.87029300  1
  C  C7  1  0.51671800  0.97808600  0.62970700  1
  C  C8  1  0.00000000  0.00000000  0.00000000  1
  C  C9  1  0.00000000  0.00000000  0.50000000  1
  C  C10  1  0.50000000  0.50000000  0.50000000  1
  C  C11  1  0.50000000  0.50000000  0.00000000  1
  Ni  Ni12  1  0.02544000  0.15191400  0.75000000  1
  Ni  Ni13  1  0.52544000  0.34808600  0.25000000  1
  Ni  Ni14  1  0.47456000  0.65191400  0.75000000  1
  Ni  Ni15  1  0.97456000  0.84808600  0.25000000  1
  Cu  Cu16  1  0.04671400  0.17151000  0.13517600  1
  Cu  Cu17  1  0.04671400  0.17151000  0.36482400  1
  Cu  Cu18  1  0.69341400  0.20064800  0.52253500  1
  Cu  Cu19  1  0.69341400  0.20064800  0.97746500  1
  Cu  Cu20  1  0.19341400  0.29935200  0.02253500  1
  Cu  Cu21  1  0.19341400  0.29935200  0.47746500  1
  Cu  Cu22  1  0.54671400  0.32849000  0.63517600  1
  Cu  Cu23  1  0.54671400  0.32849000  0.86482400  1
  Cu  Cu24  1  0.45328600  0.67151000  0.13517600  1
  Cu  Cu25  1  0.45328600  0.67151000  0.36482400  1
  Cu  Cu26  1  0.80658600  0.70064800  0.52253500  1
  Cu  Cu27  1  0.80658600  0.70064800  0.97746500  1
  Cu  Cu28  1  0.30658600  0.79935200  0.02253500  1
  Cu  Cu29  1  0.30658600  0.79935200  0.47746500  1
  Cu  Cu30  1  0.95328600  0.82849000  0.86482400  1
  Cu  Cu31  1  0.95328600  0.82849000  0.63517600  1
  C  C32  1  0.17271100  0.09079000  0.64407200  1
  C  C33  1  0.17271100  0.09079000  0.85592800  1
  C  C34  1  0.68638600  0.09918900  0.50521500  1
  C  C35  1  0.68638600  0.09918900  0.99478500  1
  C  C36  1  0.71970700  0.09983800  0.75000000  1
  C  C37  1  0.15883200  0.14380000  0.08159000  1
  C  C38  1  0.15883200  0.14380000  0.41841000  1
  C  C39  1  0.55462500  0.16831400  0.25000000  1
  C  C40  1  0.05462500  0.33168600  0.75000000  1
  C  C41  1  0.65883200  0.35620000  0.58159000  1
  C  C42  1  0.65883200  0.35620000  0.91841000  1
  C  C43  1  0.21970700  0.40016200  0.25000000  1
  C  C44  1  0.18638600  0.40081100  0.00521500  1
  C  C45  1  0.18638600  0.40081100  0.49478500  1
  C  C46  1  0.67271100  0.40921000  0.14407200  1
  C  C47  1  0.67271100  0.40921000  0.35592800  1
  C  C48  1  0.32728900  0.59079000  0.85592800  1
  C  C49  1  0.32728900  0.59079000  0.64407200  1
  C  C50  1  0.81361400  0.59918900  0.50521500  1
  C  C51  1  0.81361400  0.59918900  0.99478500  1
  C  C52  1  0.78029300  0.59983800  0.75000000  1
  C  C53  1  0.34116800  0.64380000  0.08159000  1
  C  C54  1  0.34116800  0.64380000  0.41841000  1
  C  C55  1  0.94537500  0.66831400  0.25000000  1
  C  C56  1  0.44537500  0.83168600  0.75000000  1
  C  C57  1  0.84116800  0.85620000  0.58159000  1
  C  C58  1  0.84116800  0.85620000  0.91841000  1
  C  C59  1  0.28029300  0.90016200  0.25000000  1
  C  C60  1  0.31361400  0.90081100  0.00521500  1
  C  C61  1  0.31361400  0.90081100  0.49478500  1
  C  C62  1  0.82728900  0.90921000  0.14407200  1
  C  C63  1  0.82728900  0.90921000  0.35592800  1
