# generated using pymatgen
data_Cu3NiC3
_symmetry_space_group_name_H-M   'P 1'
_cell_length_a   8.52191800
_cell_length_b   9.58637100
_cell_length_c   10.24471018
_cell_angle_alpha   71.74520892
_cell_angle_beta   90.00000000
_cell_angle_gamma   90.00000000
_symmetry_Int_Tables_number   1
_chemical_formula_structural   Cu3NiC3
_chemical_formula_sum   'Cu12 Ni4 C12'
_cell_volume   794.81365937
_cell_formula_units_Z   4
loop_
 _symmetry_equiv_pos_site_id
 _symmetry_equiv_pos_as_xyz
  1  'x, y, z'
loop_
 _atom_site_type_symbol
 _atom_site_label
 _atom_site_symmetry_multiplicity
 _atom_site_fract_x
 _atom_site_fract_y
 _atom_site_fract_z
 _atom_site_occupancy
  C  C0  1  0.93453100  0.24689100  0.08400800  1
  C  C1  1  0.43453100  0.25310900  0.91599200  1
  C  C2  1  0.06546900  0.75310900  0.91599200  1
  C  C3  1  0.56546900  0.74689100  0.08400800  1
  C  C4  1  0.75985200  0.93361800  0.44449300  1
  C  C5  1  0.25985200  0.56638200  0.55550700  1
  C  C6  1  0.24014800  0.06638200  0.55550700  1
  C  C7  1  0.74014800  0.43361800  0.44449300  1
  C  C8  1  0.97434200  0.21676300  0.67343600  1
  C  C9  1  0.47434200  0.28323700  0.32656400  1
  C  C10  1  0.02565800  0.78323700  0.32656400  1
  C  C11  1  0.52565800  0.71676300  0.67343600  1
  Ni  Ni12  1  0.13816500  0.44408900  0.34840500  1
  Ni  Ni13  1  0.63816500  0.05591100  0.65159500  1
  Ni  Ni14  1  0.86183500  0.55591100  0.65159500  1
  Ni  Ni15  1  0.36183500  0.94408900  0.34840500  1
  Cu  Cu16  1  0.02108300  0.21331000  0.43241900  1
  Cu  Cu17  1  0.52108300  0.28669000  0.56758100  1
  Cu  Cu18  1  0.97891700  0.78669000  0.56758100  1
  Cu  Cu19  1  0.47891700  0.71331000  0.43241900  1
  Cu  Cu20  1  0.77618300  0.06178600  0.83672700  1
  Cu  Cu21  1  0.27618300  0.43821400  0.16327300  1
  Cu  Cu22  1  0.22381700  0.93821400  0.16327300  1
  Cu  Cu23  1  0.72381700  0.56178600  0.83672700  1
  Cu  Cu24  1  0.91128400  0.56878400  0.25350500  1
  Cu  Cu25  1  0.41128400  0.93121600  0.74649500  1
  Cu  Cu26  1  0.08871600  0.43121600  0.74649500  1
  Cu  Cu27  1  0.58871600  0.06878400  0.25350500  1
