# generated using pymatgen
data_Cu2Ni2C9
_symmetry_space_group_name_H-M   'P 1'
_cell_length_a   9.64712700
_cell_length_b   8.44752400
_cell_length_c   9.14225605
_cell_angle_alpha   87.89623196
_cell_angle_beta   90.00000000
_cell_angle_gamma   90.00000000
_symmetry_Int_Tables_number   1
_chemical_formula_structural   Cu2Ni2C9
_chemical_formula_sum   'Cu8 Ni8 C36'
_cell_volume   744.53992205
_cell_formula_units_Z   4
loop_
 _symmetry_equiv_pos_site_id
 _symmetry_equiv_pos_as_xyz
  1  'x, y, z'
loop_
 _atom_site_type_symbol
 _atom_site_label
 _atom_site_symmetry_multiplicity
 _atom_site_fract_x
 _atom_site_fract_y
 _atom_site_fract_z
 _atom_site_occupancy
  C  C0  1  0.58157900  0.24665000  0.88993000  1
  C  C1  1  0.08157900  0.75335000  0.61007000  1
  C  C2  1  0.41842100  0.75335000  0.11007000  1
  C  C3  1  0.91842100  0.24665000  0.38993000  1
  Ni  Ni4  1  0.81892400  0.91933000  0.05033900  1
  Ni  Ni5  1  0.31892400  0.08067000  0.44966100  1
  Ni  Ni6  1  0.18107600  0.08067000  0.94966100  1
  Ni  Ni7  1  0.68107600  0.91933000  0.55033900  1
  Ni  Ni8  1  0.07278500  0.57518500  0.21054200  1
  Ni  Ni9  1  0.57278500  0.42481500  0.28945800  1
  Ni  Ni10  1  0.92721500  0.42481500  0.78945800  1
  Ni  Ni11  1  0.42721500  0.57518500  0.71054200  1
  Cu  Cu12  1  0.58481000  0.05763700  0.24997500  1
  Cu  Cu13  1  0.08481000  0.94236300  0.25002500  1
  Cu  Cu14  1  0.41519000  0.94236300  0.75002500  1
  Cu  Cu15  1  0.91519000  0.05763700  0.74997500  1
  Cu  Cu16  1  0.79399500  0.54433800  0.06912700  1
  Cu  Cu17  1  0.29399500  0.45566200  0.43087300  1
  Cu  Cu18  1  0.20600500  0.45566200  0.93087300  1
  Cu  Cu19  1  0.70600500  0.54433800  0.56912700  1
  C  C20  1  0.87285000  0.94866600  0.62312300  1
  C  C21  1  0.37285000  0.05133400  0.87687700  1
  C  C22  1  0.12715000  0.05133400  0.37687700  1
  C  C23  1  0.62715000  0.94866600  0.12312300  1
  C  C24  1  0.64358300  0.70108700  0.50759100  1
  C  C25  1  0.14358300  0.29891300  0.99240900  1
  C  C26  1  0.35641700  0.29891300  0.49240900  1
  C  C27  1  0.85641700  0.70108700  0.00759100  1
  C  C28  1  0.64232200  0.56630400  0.12320500  1
  C  C29  1  0.14232200  0.43369600  0.37679500  1
  C  C30  1  0.35767800  0.43369600  0.87679500  1
  C  C31  1  0.85767800  0.56630400  0.62320500  1
  C  C32  1  0.80465500  0.06408600  0.87267800  1
  C  C33  1  0.30465500  0.93591400  0.62732200  1
  C  C34  1  0.19534500  0.93591400  0.12732200  1
  C  C35  1  0.69534500  0.06408600  0.37267800  1
  C  C36  1  0.94790000  0.01578300  0.18951300  1
  C  C37  1  0.44790000  0.98421700  0.31048700  1
  C  C38  1  0.05210000  0.98421700  0.81048700  1
  C  C39  1  0.55210000  0.01578300  0.68951300  1
  C  C40  1  0.61168700  0.47702700  0.69618300  1
  C  C41  1  0.11168700  0.52297300  0.80381700  1
  C  C42  1  0.38831300  0.52297300  0.30381700  1
  C  C43  1  0.88831300  0.47702700  0.19618300  1
  C  C44  1  0.79192100  0.41913500  0.94784200  1
  C  C45  1  0.29192100  0.58086500  0.55215800  1
  C  C46  1  0.20807900  0.58086500  0.05215800  1
  C  C47  1  0.70807900  0.41913500  0.44784200  1
  C  C48  1  0.93467400  0.22678600  0.67933800  1
  C  C49  1  0.43467400  0.77321400  0.82066200  1
  C  C50  1  0.06532600  0.77321400  0.32066200  1
  C  C51  1  0.56532600  0.22678600  0.17933800  1
