# generated using pymatgen
data_Cu4NiC2
_symmetry_space_group_name_H-M   'P 1'
_cell_length_a   6.99577400
_cell_length_b   6.83109200
_cell_length_c   7.79261126
_cell_angle_alpha   72.96690595
_cell_angle_beta   90.00000000
_cell_angle_gamma   90.00000000
_symmetry_Int_Tables_number   1
_chemical_formula_structural   Cu4NiC2
_chemical_formula_sum   'Cu8 Ni2 C4'
_cell_volume   356.06432404
_cell_formula_units_Z   2
loop_
 _symmetry_equiv_pos_site_id
 _symmetry_equiv_pos_as_xyz
  1  'x, y, z'
loop_
 _atom_site_type_symbol
 _atom_site_label
 _atom_site_symmetry_multiplicity
 _atom_site_fract_x
 _atom_site_fract_y
 _atom_site_fract_z
 _atom_site_occupancy
  C  C0  1  0.25000000  0.71096400  0.94633700  1
  C  C1  1  0.75000000  0.28903600  0.05366300  1
  C  C2  1  0.25000000  0.72353100  0.44596200  1
  C  C3  1  0.75000000  0.27646900  0.55403800  1
  Ni  Ni4  1  0.25000000  0.24064200  0.81310400  1
  Ni  Ni5  1  0.75000000  0.75935800  0.18689600  1
  Cu  Cu6  1  0.25000000  0.03147500  0.11491800  1
  Cu  Cu7  1  0.75000000  0.96852500  0.88508200  1
  Cu  Cu8  1  0.25000000  0.03623400  0.61470600  1
  Cu  Cu9  1  0.75000000  0.96376600  0.38529400  1
  Cu  Cu10  1  0.50367100  0.49487600  0.74831700  1
  Cu  Cu11  1  0.00367100  0.50512400  0.25168300  1
  Cu  Cu12  1  0.49632900  0.50512400  0.25168300  1
  Cu  Cu13  1  0.99632900  0.49487600  0.74831700  1
