# generated using pymatgen
data_Cu21Ni4C15
_symmetry_space_group_name_H-M   'P 1'
_cell_length_a   10.03478415
_cell_length_b   9.94089923
_cell_length_c   19.40432356
_cell_angle_alpha   90.00000000
_cell_angle_beta   103.74134417
_cell_angle_gamma   90.00000000
_symmetry_Int_Tables_number   1
_chemical_formula_structural   Cu21Ni4C15
_chemical_formula_sum   'Cu84 Ni16 C60'
_cell_volume   1880.27106310
_cell_formula_units_Z   4
loop_
 _symmetry_equiv_pos_site_id
 _symmetry_equiv_pos_as_xyz
  1  'x, y, z'
loop_
 _atom_site_type_symbol
 _atom_site_label
 _atom_site_symmetry_multiplicity
 _atom_site_fract_x
 _atom_site_fract_y
 _atom_site_fract_z
 _atom_site_occupancy
  C  C0  1  0.29011661  0.98993970  0.76061245  1
  C  C1  1  0.13710373  0.14917684  0.38069881  1
  C  C2  1  0.36289627  0.64917684  0.61930119  1
  C  C3  1  0.20988339  0.48993970  0.23938755  1
  C  C4  1  0.79011661  0.51006030  0.76061245  1
  C  C5  1  0.63710373  0.35082316  0.38069881  1
  C  C6  1  0.86289627  0.85082316  0.61930119  1
  C  C7  1  0.70988339  0.01006030  0.23938755  1
  C  C8  1  0.19559135  0.34365943  0.82017074  1
  C  C9  1  0.05878610  0.78577567  0.44299539  1
  C  C10  1  0.03320816  0.13275043  0.16194972  1
  C  C11  1  0.46679184  0.63275043  0.83805028  1
  C  C12  1  0.44121390  0.28577567  0.55700461  1
  C  C13  1  0.30440865  0.84365943  0.17982926  1
  C  C14  1  0.69559135  0.15634057  0.82017074  1
  C  C15  1  0.55878610  0.71422433  0.44299539  1
  C  C16  1  0.53320816  0.36724957  0.16194972  1
  C  C17  1  0.96679184  0.86724957  0.83805028  1
  C  C18  1  0.94121390  0.21422433  0.55700461  1
  C  C19  1  0.80440865  0.65634057  0.17982926  1
  C  C20  1  0.07898255  0.46472691  0.91949632  1
  C  C21  1  0.05504210  0.42563632  0.64598715  1
  C  C22  1  0.04800901  0.67349502  0.58251520  1
  C  C23  1  0.08405582  0.36425970  0.47810748  1
  C  C24  1  0.18029757  0.35383922  0.62643165  1
  C  C25  1  0.30489918  0.51649454  0.92955316  1
  C  C26  1  0.02111939  0.65217649  0.11401403  1
  C  C27  1  0.39538413  0.82504845  0.91119991  1
  C  C28  1  0.43065902  0.42290170  0.91870984  1
  C  C29  1  0.02253181  0.23951020  0.02608163  1
  C  C30  1  0.47746819  0.73951020  0.97391837  1
  C  C31  1  0.06934098  0.92290170  0.08129016  1
  C  C32  1  0.10461587  0.32504845  0.08880009  1
  C  C33  1  0.47888061  0.15217649  0.88598597  1
  C  C34  1  0.57898255  0.03527309  0.91949632  1
  C  C35  1  0.19510082  0.01649454  0.07044684  1
  C  C36  1  0.31970243  0.85383922  0.37356835  1
  C  C37  1  0.41594418  0.86425970  0.52189252  1
  C  C38  1  0.55504210  0.07436368  0.64598715  1
  C  C39  1  0.45199099  0.17349502  0.41748480  1
  C  C40  1  0.54800901  0.82650498  0.58251520  1
  C  C41  1  0.44495790  0.92563632  0.35401285  1
  C  C42  1  0.58405582  0.13574030  0.47810748  1
  C  C43  1  0.68029757  0.14616078  0.62643165  1
  C  C44  1  0.80489918  0.98350546  0.92955316  1
  C  C45  1  0.42101745  0.96472691  0.08050368  1
  C  C46  1  0.52111939  0.84782351  0.11401403  1
  C  C47  1  0.89538413  0.67495155  0.91119991  1
  C  C48  1  0.93065902  0.07709830  0.91870984  1
  C  C49  1  0.52253181  0.26048980  0.02608163  1
  C  C50  1  0.97746819  0.76048980  0.97391837  1
  C  C51  1  0.56934098  0.57709830  0.08129016  1
  C  C52  1  0.60461587  0.17495155  0.08880009  1
  C  C53  1  0.97888061  0.34782351  0.88598597  1
  C  C54  1  0.69510082  0.48350546  0.07044684  1
  C  C55  1  0.81970243  0.64616078  0.37356835  1
  C  C56  1  0.91594418  0.63574030  0.52189252  1
  C  C57  1  0.95199099  0.32650498  0.41748480  1
  C  C58  1  0.94495790  0.57436368  0.35401285  1
  C  C59  1  0.92101745  0.53527309  0.08050368  1
  Ni  Ni60  1  0.19883718  0.08614305  0.93701861  1
  Ni  Ni61  1  0.13108228  0.65861258  0.74897275  1
  Ni  Ni62  1  0.05541710  0.85834064  0.26886573  1
  Ni  Ni63  1  0.22234414  0.02390134  0.56555433  1
  Ni  Ni64  1  0.27765586  0.52390134  0.43444567  1
  Ni  Ni65  1  0.44458290  0.35834064  0.73113427  1
  Ni  Ni66  1  0.36891772  0.15861258  0.25102725  1
  Ni  Ni67  1  0.69883718  0.41385695  0.93701861  1
  Ni  Ni68  1  0.30116282  0.58614305  0.06298139  1
  Ni  Ni69  1  0.63108228  0.84138742  0.74897275  1
  Ni  Ni70  1  0.55541710  0.64165936  0.26886573  1
  Ni  Ni71  1  0.72234414  0.47609866  0.56555433  1
  Ni  Ni72  1  0.77765586  0.97609866  0.43444567  1
  Ni  Ni73  1  0.94458290  0.14165936  0.73113427  1
  Ni  Ni74  1  0.86891772  0.34138742  0.25102725  1
  Ni  Ni75  1  0.80116282  0.91385695  0.06298139  1
  Cu  Cu76  1  0.03820052  0.41852992  0.87437593  1
  Cu  Cu77  1  0.07202552  0.15318592  0.94912024  1
  Cu  Cu78  1  0.00379916  0.70484625  0.76954443  1
  Cu  Cu79  1  0.08479390  0.19936896  0.74398155  1
  Cu  Cu80  1  0.21144941  0.54601938  0.99406290  1
  Cu  Cu81  1  0.15899632  0.96417431  0.89097460  1
  Cu  Cu82  1  0.13019393  0.50795275  0.74576399  1
  Cu  Cu83  1  0.00656200  0.30165100  0.46501630  1
  Cu  Cu84  1  0.08264039  0.37606371  0.60777074  1
  Cu  Cu85  1  0.08667464  0.04654202  0.58353731  1
  Cu  Cu86  1  0.13422267  0.71335068  0.67818414  1
  Cu  Cu87  1  0.27253949  0.18152594  0.89907610  1
  Cu  Cu88  1  0.25236149  0.70807076  0.80352198  1
  Cu  Cu89  1  0.04545651  0.00513202  0.25236616  1
  Cu  Cu90  1  0.34995550  0.47936716  0.89284867  1
  Cu  Cu91  1  0.12781178  0.84411875  0.34538169  1
  Cu  Cu92  1  0.20755060  0.91886856  0.50812734  1
  Cu  Cu93  1  0.02027432  0.27309465  0.07376663  1
  Cu  Cu94  1  0.17445438  0.47792622  0.37188993  1
  Cu  Cu95  1  0.36703653  0.28621172  0.77626942  1
  Cu  Cu96  1  0.26477404  0.15163296  0.53590693  1
  Cu  Cu97  1  0.23522596  0.65163296  0.46409307  1
  Cu  Cu98  1  0.13296347  0.78621172  0.22373058  1
  Cu  Cu99  1  0.32554562  0.97792622  0.62811007  1
  Cu  Cu100  1  0.47972568  0.77309565  0.92623337  1
  Cu  Cu101  1  0.29244940  0.41886856  0.49187266  1
  Cu  Cu102  1  0.37218822  0.34411875  0.65461831  1
  Cu  Cu103  1  0.15004450  0.97936716  0.10715133  1
  Cu  Cu104  1  0.45454349  0.50513202  0.74763384  1
  Cu  Cu105  1  0.53820052  0.08147008  0.87437593  1
  Cu  Cu106  1  0.57202552  0.34681408  0.94912024  1
  Cu  Cu107  1  0.50379916  0.79515375  0.76954443  1
  Cu  Cu108  1  0.24763851  0.20807076  0.19647802  1
  Cu  Cu109  1  0.22746051  0.68152594  0.10092390  1
  Cu  Cu110  1  0.36577733  0.21335068  0.32181586  1
  Cu  Cu111  1  0.41332536  0.54654202  0.41646269  1
  Cu  Cu112  1  0.41735961  0.87606371  0.39222926  1
  Cu  Cu113  1  0.58479390  0.30063104  0.74398155  1
  Cu  Cu114  1  0.71144941  0.95398062  0.99406290  1
  Cu  Cu115  1  0.65899632  0.53582569  0.89097460  1
  Cu  Cu116  1  0.49343800  0.80165100  0.53498370  1
  Cu  Cu117  1  0.36980607  0.00795275  0.25423601  1
  Cu  Cu118  1  0.63019393  0.99204725  0.74576399  1
  Cu  Cu119  1  0.50656200  0.19834900  0.46501630  1
  Cu  Cu120  1  0.34100368  0.46417431  0.10902540  1
  Cu  Cu121  1  0.28855059  0.04601938  0.00593710  1
  Cu  Cu122  1  0.41520610  0.69936896  0.25601845  1
  Cu  Cu123  1  0.58264039  0.12393629  0.60777074  1
  Cu  Cu124  1  0.58667464  0.45345798  0.58353731  1
  Cu  Cu125  1  0.63422267  0.78664932  0.67818414  1
  Cu  Cu126  1  0.77253949  0.31847406  0.89907610  1
  Cu  Cu127  1  0.75236149  0.79192924  0.80352198  1
  Cu  Cu128  1  0.49620084  0.20484625  0.23045557  1
  Cu  Cu129  1  0.42797448  0.65318592  0.05087976  1
  Cu  Cu130  1  0.46179948  0.91852992  0.12562407  1
  Cu  Cu131  1  0.54545651  0.49486798  0.25236616  1
  Cu  Cu132  1  0.84995550  0.02063284  0.89284867  1
  Cu  Cu133  1  0.62781178  0.65588125  0.34538169  1
  Cu  Cu134  1  0.70755060  0.58113144  0.50812734  1
  Cu  Cu135  1  0.52027432  0.22690435  0.07376663  1
  Cu  Cu136  1  0.67445438  0.02207378  0.37188993  1
  Cu  Cu137  1  0.86703653  0.21378828  0.77626942  1
  Cu  Cu138  1  0.76477404  0.34836704  0.53590693  1
  Cu  Cu139  1  0.73522596  0.84836704  0.46409307  1
  Cu  Cu140  1  0.63296347  0.71378828  0.22373058  1
  Cu  Cu141  1  0.82554562  0.52207378  0.62811007  1
  Cu  Cu142  1  0.97972568  0.72690435  0.92623337  1
  Cu  Cu143  1  0.79244940  0.08113144  0.49187266  1
  Cu  Cu144  1  0.87218822  0.15588125  0.65461831  1
  Cu  Cu145  1  0.65004450  0.52063284  0.10715133  1
  Cu  Cu146  1  0.95454349  0.99486798  0.74763384  1
  Cu  Cu147  1  0.74763851  0.29192924  0.19647802  1
  Cu  Cu148  1  0.72746051  0.81847406  0.10092390  1
  Cu  Cu149  1  0.86577733  0.28664932  0.32181586  1
  Cu  Cu150  1  0.91332536  0.95345798  0.41646269  1
  Cu  Cu151  1  0.91735961  0.62393629  0.39222926  1
  Cu  Cu152  1  0.99343800  0.69834900  0.53498370  1
  Cu  Cu153  1  0.86980607  0.49204725  0.25423601  1
  Cu  Cu154  1  0.84100368  0.03582569  0.10902540  1
  Cu  Cu155  1  0.78855059  0.45398062  0.00593710  1
  Cu  Cu156  1  0.91520610  0.80063104  0.25601845  1
  Cu  Cu157  1  0.99620084  0.29515375  0.23045557  1
  Cu  Cu158  1  0.92797448  0.84681408  0.05087976  1
  Cu  Cu159  1  0.96179948  0.58147008  0.12562407  1
