# generated using pymatgen
data_Cu4Ni4C17
_symmetry_space_group_name_H-M   'P 1'
_cell_length_a   5.50735001
_cell_length_b   24.17528299
_cell_length_c   5.50734740
_cell_angle_alpha   90.00216842
_cell_angle_beta   120.00001555
_cell_angle_gamma   83.46465162
_symmetry_Int_Tables_number   1
_chemical_formula_structural   Cu4Ni4C17
_chemical_formula_sum   'Cu8 Ni8 C34'
_cell_volume   629.51368688
_cell_formula_units_Z   2
loop_
 _symmetry_equiv_pos_site_id
 _symmetry_equiv_pos_as_xyz
  1  'x, y, z'
loop_
 _atom_site_type_symbol
 _atom_site_label
 _atom_site_symmetry_multiplicity
 _atom_site_fract_x
 _atom_site_fract_y
 _atom_site_fract_z
 _atom_site_occupancy
  C  C0  1  0.18661900  0.21939700  0.59333700  1
  C  C1  1  0.18662200  0.71940100  0.09333500  1
  C  C2  1  0.81334000  0.28062800  0.90665500  1
  C  C3  1  0.81338400  0.78058200  0.40666900  1
  C  C4  1  0.91549000  0.62667700  0.45777800  1
  C  C5  1  0.08450500  0.37334900  0.54224000  1
  C  C6  1  0.08456300  0.87329300  0.04224400  1
  C  C7  1  0.00013700  0.99979400  0.00007100  1
  C  C8  1  0.00021500  0.49990100  0.50019400  1
  C  C9  1  0.91523800  0.12706800  0.95761400  1
  Ni  Ni10  1  0.30389500  0.04413800  0.65194600  1
  Ni  Ni11  1  0.30394500  0.54409700  0.15199100  1
  Ni  Ni12  1  0.69607700  0.45590000  0.84803900  1
  Ni  Ni13  1  0.69610100  0.95584200  0.34803100  1
  Ni  Ni14  1  0.55852700  0.16206200  0.27928400  1
  Ni  Ni15  1  0.55858100  0.66199800  0.77932000  1
  Ni  Ni16  1  0.44143600  0.33797600  0.22069200  1
  Ni  Ni17  1  0.44143000  0.83799000  0.72067900  1
  Cu  Cu18  1  0.65688000  0.01468600  0.32842800  1
  Cu  Cu19  1  0.65686200  0.51471200  0.82842400  1
  Cu  Cu20  1  0.34313100  0.48527300  0.17157800  1
  Cu  Cu21  1  0.34309200  0.98532700  0.67155500  1
  Cu  Cu22  1  0.59767300  0.10331200  0.29886400  1
  Cu  Cu23  1  0.59769900  0.60327400  0.79887800  1
  Cu  Cu24  1  0.40230300  0.39669700  0.20112700  1
  Cu  Cu25  1  0.40229500  0.89671500  0.70112000  1
  C  C26  1  0.13594000  0.06141700  0.80262000  1
  C  C27  1  0.13602000  0.56140700  0.30257900  1
  C  C28  1  0.13592700  0.06141300  0.33331500  1
  C  C29  1  0.13601400  0.56140400  0.83346600  1
  C  C30  1  0.60526500  0.06141900  0.80262900  1
  C  C31  1  0.60516800  0.56140700  0.30258900  1
  C  C32  1  0.39487000  0.43856800  0.69743500  1
  C  C33  1  0.39495800  0.93848800  0.19746900  1
  C  C34  1  0.86399100  0.43857300  0.16653100  1
  C  C35  1  0.86401500  0.93848800  0.66649700  1
  C  C36  1  0.86398200  0.43857000  0.69744000  1
  C  C37  1  0.86400900  0.93848600  0.19747100  1
  C  C38  1  0.70027700  0.18115800  0.58185400  1
  C  C39  1  0.70043200  0.68102800  0.08200300  1
  C  C40  1  0.70026000  0.18115100  0.11844400  1
  C  C41  1  0.70039800  0.68102300  0.61845500  1
  C  C42  1  0.23689300  0.18116400  0.11849000  1
  C  C43  1  0.23691000  0.68103900  0.61849700  1
  C  C44  1  0.76313900  0.31895000  0.38152900  1
  C  C45  1  0.76309700  0.81894300  0.88150100  1
  C  C46  1  0.29959600  0.31895900  0.38156600  1
  C  C47  1  0.29962600  0.81895200  0.88153200  1
  C  C48  1  0.29956500  0.31895600  0.91797500  1
  C  C49  1  0.29960100  0.81895000  0.41801700  1
