# generated using pymatgen
data_CuNi3C7
_symmetry_space_group_name_H-M   'P 1'
_cell_length_a   7.24252658
_cell_length_b   7.24252658
_cell_length_c   7.24252627
_cell_angle_alpha   91.89354055
_cell_angle_beta   91.89354055
_cell_angle_gamma   91.89353300
_symmetry_Int_Tables_number   1
_chemical_formula_structural   CuNi3C7
_chemical_formula_sum   'Cu2 Ni6 C14'
_cell_volume   379.26445416
_cell_formula_units_Z   2
loop_
 _symmetry_equiv_pos_site_id
 _symmetry_equiv_pos_as_xyz
  1  'x, y, z'
loop_
 _atom_site_type_symbol
 _atom_site_label
 _atom_site_symmetry_multiplicity
 _atom_site_fract_x
 _atom_site_fract_y
 _atom_site_fract_z
 _atom_site_occupancy
  Ni  Ni0  1  0.25000000  0.89774500  0.60225500  1
  Ni  Ni1  1  0.60225500  0.25000000  0.89774500  1
  Ni  Ni2  1  0.89774500  0.60225500  0.25000000  1
  Ni  Ni3  1  0.75000000  0.10225500  0.39774500  1
  Ni  Ni4  1  0.39774500  0.75000000  0.10225500  1
  Ni  Ni5  1  0.10225500  0.39774500  0.75000000  1
  Cu  Cu6  1  0.75000000  0.75000000  0.75000000  1
  Cu  Cu7  1  0.25000000  0.25000000  0.25000000  1
  C  C8  1  0.50000000  0.50000000  0.50000000  1
  C  C9  1  0.00000000  0.00000000  0.00000000  1
  C  C10  1  0.05067800  0.73210200  0.92265500  1
  C  C11  1  0.92265500  0.05067800  0.73210200  1
  C  C12  1  0.73210200  0.92265500  0.05067800  1
  C  C13  1  0.44932200  0.57734500  0.76789800  1
  C  C14  1  0.76789800  0.44932200  0.57734500  1
  C  C15  1  0.57734500  0.76789800  0.44932200  1
  C  C16  1  0.94932200  0.26789800  0.07734500  1
  C  C17  1  0.07734500  0.94932200  0.26789800  1
  C  C18  1  0.26789800  0.07734500  0.94932200  1
  C  C19  1  0.55067800  0.42265500  0.23210200  1
  C  C20  1  0.42265500  0.23210200  0.55067800  1
  C  C21  1  0.23210200  0.55067800  0.42265500  1
