# generated using pymatgen
data_Cu2Ni2C17
_symmetry_space_group_name_H-M   'P 1'
_cell_length_a   7.32458254
_cell_length_b   6.78958116
_cell_length_c   28.29020111
_cell_angle_alpha   90.00000000
_cell_angle_beta   93.80609904
_cell_angle_gamma   90.00000000
_symmetry_Int_Tables_number   1
_chemical_formula_structural   Cu2Ni2C17
_chemical_formula_sum   'Cu16 Ni16 C136'
_cell_volume   1403.79264197
_cell_formula_units_Z   8
loop_
 _symmetry_equiv_pos_site_id
 _symmetry_equiv_pos_as_xyz
  1  'x, y, z'
loop_
 _atom_site_type_symbol
 _atom_site_label
 _atom_site_symmetry_multiplicity
 _atom_site_fract_x
 _atom_site_fract_y
 _atom_site_fract_z
 _atom_site_occupancy
  C  C0  1  0.13031689  0.25351287  0.93815037  1
  C  C1  1  0.14448423  0.92706166  0.31089767  1
  C  C2  1  0.36968311  0.75351287  0.56184963  1
  C  C3  1  0.35551577  0.42706166  0.18910233  1
  C  C4  1  0.64448423  0.57293834  0.81089767  1
  C  C5  1  0.63031689  0.24648713  0.43815037  1
  C  C6  1  0.85551577  0.07293834  0.68910233  1
  C  C7  1  0.86968311  0.74648713  0.06184963  1
  C  C8  1  0.99119492  0.77921618  0.85100006  1
  C  C9  1  0.97027018  0.51008279  0.77030521  1
  C  C10  1  0.99757856  0.55604205  0.60283541  1
  C  C11  1  0.00597269  0.28508982  0.85009639  1
  C  C12  1  0.01957630  0.26382353  0.47880903  1
  C  C13  1  0.08213709  0.66597226  0.73278126  1
  C  C14  1  0.13435098  0.88277099  0.89437323  1
  C  C15  1  0.02399095  0.93777955  0.40103116  1
  C  C16  1  0.09600523  0.63851924  0.89498089  1
  C  C17  1  0.10526757  0.41120895  0.72817434  1
  C  C18  1  0.10621707  0.41324668  0.34532679  1
  C  C19  1  0.16068185  0.37487151  0.52062853  1
  C  C20  1  0.14285214  0.12850469  0.51934558  1
  C  C21  1  0.21674038  0.73877396  0.85177075  1
  C  C22  1  0.34076640  0.52489247  0.80783985  1
  C  C23  1  0.22743252  0.28514285  0.85239523  1
  C  C24  1  0.12159181  0.63133399  0.37520405  1
  C  C25  1  0.13291508  0.05330427  0.22465377  1
  C  C26  1  0.13284025  0.81847957  0.22359963  1
  C  C27  1  0.13571815  0.13953025  0.02488055  1
  C  C28  1  0.11607828  0.37605370  0.02420546  1
  C  C29  1  0.23523097  0.43771900  0.39793496  1
  C  C30  1  0.25024365  0.92206777  0.39631186  1
  C  C31  1  0.27256748  0.78514285  0.64760477  1
  C  C32  1  0.15923360  0.02489247  0.69216015  1
  C  C33  1  0.28325962  0.23877396  0.64822925  1
  C  C34  1  0.35714786  0.62850469  0.98065442  1
  C  C35  1  0.24775441  0.25470236  0.47497039  1
  C  C36  1  0.33931815  0.87487151  0.97937147  1
  C  C37  1  0.25224559  0.75470236  0.02502961  1
  C  C38  1  0.24975635  0.42206777  0.10368814  1
  C  C39  1  0.26476903  0.93771900  0.10206504  1
  C  C40  1  0.39473243  0.91120895  0.77182566  1
  C  C41  1  0.40399477  0.13851924  0.60501911  1
  C  C42  1  0.36564902  0.38277099  0.60562677  1
  C  C43  1  0.41786291  0.16597226  0.76721874  1
  C  C44  1  0.38392172  0.87605370  0.47579454  1
  C  C45  1  0.36428185  0.63953025  0.47511945  1
  C  C46  1  0.36715975  0.31847957  0.27640037  1
  C  C47  1  0.49402731  0.78508982  0.64990361  1
  C  C48  1  0.36708492  0.55330427  0.27534623  1
  C  C49  1  0.37840819  0.13133399  0.12479595  1
  C  C50  1  0.50242144  0.05604205  0.89716459  1
  C  C51  1  0.51957630  0.23617647  0.97880903  1
  C  C52  1  0.52972982  0.01008279  0.72969479  1
  C  C53  1  0.39378293  0.91324668  0.15467321  1
  C  C54  1  0.50880508  0.27921618  0.64899994  1
  C  C55  1  0.52399095  0.56222045  0.90103116  1
  C  C56  1  0.47600905  0.43777955  0.09896884  1
  C  C57  1  0.49119492  0.72078382  0.35100006  1
  C  C58  1  0.60621707  0.08675332  0.84532679  1
  C  C59  1  0.47027018  0.98991721  0.27030521  1
  C  C60  1  0.48042370  0.76382353  0.02119097  1
  C  C61  1  0.49757856  0.94395795  0.10283541  1
  C  C62  1  0.62159181  0.86866601  0.87520405  1
  C  C63  1  0.63291508  0.44669573  0.72465377  1
  C  C64  1  0.50597269  0.21491018  0.35009639  1
  C  C65  1  0.63284025  0.68152043  0.72359963  1
  C  C66  1  0.63571815  0.36046975  0.52488055  1
  C  C67  1  0.61607828  0.12394630  0.52420546  1
  C  C68  1  0.58213709  0.83402774  0.23278126  1
  C  C69  1  0.63435098  0.61722901  0.39437323  1
  C  C70  1  0.59600523  0.86148076  0.39498089  1
  C  C71  1  0.60526757  0.08879105  0.22817434  1
  C  C72  1  0.73523097  0.06228100  0.89793496  1
  C  C73  1  0.75024365  0.57793223  0.89631186  1
  C  C74  1  0.74775441  0.24529764  0.97497039  1
  C  C75  1  0.66068185  0.12512849  0.02062853  1
  C  C76  1  0.75224559  0.74529764  0.52502961  1
  C  C77  1  0.64285214  0.37149531  0.01934558  1
  C  C78  1  0.71674038  0.76122604  0.35177075  1
  C  C79  1  0.84076640  0.97510753  0.30783985  1
  C  C80  1  0.72743252  0.21485715  0.35239523  1
  C  C81  1  0.74975635  0.07793223  0.60368814  1
  C  C82  1  0.76476903  0.56228100  0.60206504  1
  C  C83  1  0.88392172  0.62394630  0.97579454  1
  C  C84  1  0.86428185  0.86046975  0.97511945  1
  C  C85  1  0.86715975  0.18152043  0.77640037  1
  C  C86  1  0.86708492  0.94669573  0.77534623  1
  C  C87  1  0.87840819  0.36866601  0.62479595  1
  C  C88  1  0.77256748  0.71485715  0.14760477  1
  C  C89  1  0.65923360  0.47510753  0.19216015  1
  C  C90  1  0.78325962  0.26122604  0.14822925  1
  C  C91  1  0.85714786  0.87149531  0.48065442  1
  C  C92  1  0.83931815  0.62512849  0.47937147  1
  C  C93  1  0.89378293  0.58675332  0.65467321  1
  C  C94  1  0.89473243  0.58879105  0.27182566  1
  C  C95  1  0.90399477  0.36148076  0.10501811  1
  C  C96  1  0.97600905  0.06222045  0.59896884  1
  C  C97  1  0.86564902  0.11722901  0.10562677  1
  C  C98  1  0.91786291  0.33402774  0.26721874  1
  C  C99  1  0.98042370  0.73617647  0.52119097  1
  C  C100  1  0.99402731  0.71491018  0.14990361  1
  C  C101  1  0.00242144  0.44395795  0.39716459  1
  C  C102  1  0.02972982  0.48991721  0.22969479  1
  C  C103  1  0.00880508  0.22078382  0.14899994  1
  Ni  Ni104  1  0.10973505  0.76008353  0.87382825  1
  Ni  Ni105  1  0.05623486  0.52972199  0.74431869  1
  Ni  Ni106  1  0.11502622  0.47757272  0.37829138  1
  Ni  Ni107  1  0.14365061  0.25334008  0.49780797  1
  Ni  Ni108  1  0.44376514  0.02972199  0.75568131  1
  Ni  Ni109  1  0.39026495  0.26008353  0.62617175  1
  Ni  Ni110  1  0.35634939  0.75334008  0.00219203  1
  Ni  Ni111  1  0.38497378  0.97757272  0.12170862  1
  Ni  Ni112  1  0.61502622  0.02242728  0.87829138  1
  Ni  Ni113  1  0.64365061  0.24665992  0.99780797  1
  Ni  Ni114  1  0.60973505  0.73991647  0.37382825  1
  Ni  Ni115  1  0.55623486  0.97027801  0.24431869  1
  Ni  Ni116  1  0.85634939  0.74665992  0.50219203  1
  Ni  Ni117  1  0.88497378  0.52242728  0.62170862  1
  Ni  Ni118  1  0.94376514  0.47027801  0.25568131  1
  Ni  Ni119  1  0.89026495  0.23991647  0.12617175  1
  Cu  Cu120  1  0.12027671  0.23717626  0.86897732  1
  Cu  Cu121  1  0.13360955  0.88360028  0.37951385  1
  Cu  Cu122  1  0.09820566  0.93344913  0.24341979  1
  Cu  Cu123  1  0.17094930  0.26448730  0.00696570  1
  Cu  Cu124  1  0.37972329  0.73717626  0.63102268  1
  Cu  Cu125  1  0.32905070  0.76448730  0.49303430  1
  Cu  Cu126  1  0.40179534  0.43344913  0.25658021  1
  Cu  Cu127  1  0.36639045  0.38360028  0.12048615  1
  Cu  Cu128  1  0.63360955  0.61639972  0.87951385  1
  Cu  Cu129  1  0.59820566  0.56655087  0.74341979  1
  Cu  Cu130  1  0.67094930  0.23551270  0.50696570  1
  Cu  Cu131  1  0.62027671  0.26282374  0.36897732  1
  Cu  Cu132  1  0.82905070  0.73551270  0.99303430  1
  Cu  Cu133  1  0.90179434  0.06655087  0.75658021  1
  Cu  Cu134  1  0.86639045  0.11639972  0.62048615  1
  Cu  Cu135  1  0.87972329  0.76282374  0.13102268  1
  C  C136  1  0.12397679  0.86371522  0.68532735  1
  C  C137  1  0.15383884  0.19691747  0.69066448  1
  C  C138  1  0.05443537  0.52934584  0.06404243  1
  C  C139  1  0.09888393  0.00237420  0.57092942  1
  C  C140  1  0.09960156  0.97052100  0.05649548  1
  C  C141  1  0.17055925  0.55002368  0.56075682  1
  C  C142  1  0.16600740  0.66424713  0.18135139  1
  C  C143  1  0.32944075  0.05002368  0.93924318  1
  C  C144  1  0.16655706  0.20833805  0.18896514  1
  C  C145  1  0.40111607  0.50237420  0.92907058  1
  C  C146  1  0.33344294  0.70833805  0.31103486  1
  C  C147  1  0.34616116  0.69691747  0.80933552  1
  C  C148  1  0.33399260  0.16424713  0.31864861  1
  C  C149  1  0.37602321  0.36371522  0.81467265  1
  C  C150  1  0.40039844  0.47052100  0.44350452  1
  C  C151  1  0.44556463  0.02934584  0.43595757  1
  C  C152  1  0.55443537  0.97065416  0.56404243  1
  C  C153  1  0.59960156  0.52947900  0.55649548  1
  C  C154  1  0.62397679  0.63628478  0.18532735  1
  C  C155  1  0.66600740  0.83575287  0.68135139  1
  C  C156  1  0.65383884  0.30308253  0.19066448  1
  C  C157  1  0.66655706  0.29166195  0.68896514  1
  C  C158  1  0.59888393  0.49762580  0.07092942  1
  C  C159  1  0.83344294  0.79166195  0.81103486  1
  C  C160  1  0.67055925  0.94997632  0.06075682  1
  C  C161  1  0.83399260  0.33575287  0.81864861  1
  C  C162  1  0.82944075  0.44997632  0.43924318  1
  C  C163  1  0.90039844  0.02947900  0.94350452  1
  C  C164  1  0.90111607  0.99762580  0.42907058  1
  C  C165  1  0.94556463  0.47065416  0.93595757  1
  C  C166  1  0.84616116  0.80308253  0.30933552  1
  C  C167  1  0.87602321  0.13628478  0.31467265  1
