# generated using pymatgen
data_Cu6Ni6C7
_symmetry_space_group_name_H-M   'P 1'
_cell_length_a   10.98397500
_cell_length_b   7.98054700
_cell_length_c   12.39583772
_cell_angle_alpha   54.14194344
_cell_angle_beta   90.00000000
_cell_angle_gamma   90.00000000
_symmetry_Int_Tables_number   1
_chemical_formula_structural   Cu6Ni6C7
_chemical_formula_sum   'Cu24 Ni24 C28'
_cell_volume   880.65414698
_cell_formula_units_Z   4
loop_
 _symmetry_equiv_pos_site_id
 _symmetry_equiv_pos_as_xyz
  1  'x, y, z'
loop_
 _atom_site_type_symbol
 _atom_site_label
 _atom_site_symmetry_multiplicity
 _atom_site_fract_x
 _atom_site_fract_y
 _atom_site_fract_z
 _atom_site_occupancy
  C  C0  1  0.04408500  0.72831800  0.01418100  1
  C  C1  1  0.45591500  0.72831800  0.51418100  1
  C  C2  1  0.95591500  0.27168200  0.98581900  1
  C  C3  1  0.54408500  0.27168200  0.48581900  1
  Ni  Ni4  1  0.11139900  0.54252800  0.33862600  1
  Ni  Ni5  1  0.38860100  0.54252800  0.83862600  1
  Ni  Ni6  1  0.88860100  0.45747200  0.66137400  1
  Ni  Ni7  1  0.61139900  0.45747200  0.16137400  1
  Ni  Ni8  1  0.04876400  0.59421800  0.43513900  1
  Ni  Ni9  1  0.45123600  0.59421800  0.93513900  1
  Ni  Ni10  1  0.95123600  0.40578200  0.56486100  1
  Ni  Ni11  1  0.54876400  0.40578200  0.06486100  1
  Ni  Ni12  1  0.24920200  0.26776000  0.59180300  1
  Ni  Ni13  1  0.25079800  0.26776000  0.09180300  1
  Ni  Ni14  1  0.75079800  0.73224000  0.40819700  1
  Ni  Ni15  1  0.74920200  0.73224000  0.90819700  1
  Ni  Ni16  1  0.08704300  0.30944900  0.55179400  1
  Ni  Ni17  1  0.41295700  0.30944900  0.05179400  1
  Ni  Ni18  1  0.91295700  0.69055100  0.44820600  1
  Ni  Ni19  1  0.58704300  0.69055100  0.94820600  1
  Ni  Ni20  1  0.85226800  0.32913100  0.49767500  1
  Ni  Ni21  1  0.64773200  0.32913100  0.99767500  1
  Ni  Ni22  1  0.14773200  0.67086900  0.50232500  1
  Ni  Ni23  1  0.35226800  0.67086900  0.00232500  1
  Ni  Ni24  1  0.90939800  0.69440500  0.30118900  1
  Ni  Ni25  1  0.59060200  0.69440500  0.80118900  1
  Ni  Ni26  1  0.09060200  0.30559500  0.69881100  1
  Ni  Ni27  1  0.40939800  0.30559500  0.19881100  1
  Cu  Cu28  1  0.63813600  0.97470200  0.33000800  1
  Cu  Cu29  1  0.86186400  0.97470200  0.83000800  1
  Cu  Cu30  1  0.36186400  0.02529800  0.66999200  1
  Cu  Cu31  1  0.13813600  0.02529800  0.16999200  1
  Cu  Cu32  1  0.37181000  0.82654700  0.21577400  1
  Cu  Cu33  1  0.12819000  0.82654700  0.71577400  1
  Cu  Cu34  1  0.62819000  0.17345300  0.78422600  1
  Cu  Cu35  1  0.87181000  0.17345300  0.28422600  1
  Cu  Cu36  1  0.28216500  0.52430500  0.19878900  1
  Cu  Cu37  1  0.21783500  0.52430500  0.69878900  1
  Cu  Cu38  1  0.71783500  0.47569500  0.80121100  1
  Cu  Cu39  1  0.78216500  0.47569500  0.30121100  1
  Cu  Cu40  1  0.58263200  0.25875500  0.76016600  1
  Cu  Cu41  1  0.91736800  0.25875500  0.26016600  1
  Cu  Cu42  1  0.41736800  0.74124500  0.23983400  1
  Cu  Cu43  1  0.08263200  0.74124500  0.73983400  1
  Cu  Cu44  1  0.93436200  0.80802100  0.47717900  1
  Cu  Cu45  1  0.56563800  0.80802100  0.97717900  1
  Cu  Cu46  1  0.06563800  0.19197900  0.52282100  1
  Cu  Cu47  1  0.43436200  0.19197900  0.02282100  1
  Cu  Cu48  1  0.71910800  0.06612900  0.14632600  1
  Cu  Cu49  1  0.78089200  0.06612900  0.64632600  1
  Cu  Cu50  1  0.28089200  0.93387100  0.85367400  1
  Cu  Cu51  1  0.21910800  0.93387100  0.35367400  1
  C  C52  1  0.66169100  0.46538200  0.24729500  1
  C  C53  1  0.83830900  0.46538200  0.74729500  1
  C  C54  1  0.33830900  0.53461800  0.75270500  1
  C  C55  1  0.16169100  0.53461800  0.25270500  1
  C  C56  1  0.92293100  0.84234000  0.17672400  1
  C  C57  1  0.57706900  0.84234000  0.67672400  1
  C  C58  1  0.07706900  0.15766000  0.82327600  1
  C  C59  1  0.42293100  0.15766000  0.32327600  1
  C  C60  1  0.32416300  0.42092300  0.51957300  1
  C  C61  1  0.17583700  0.42092300  0.01957300  1
  C  C62  1  0.67583700  0.57907700  0.48042700  1
  C  C63  1  0.82416300  0.57907700  0.98042700  1
  C  C64  1  0.72040000  0.94504400  0.31559900  1
  C  C65  1  0.77960000  0.94504400  0.81559900  1
  C  C66  1  0.27960000  0.05495600  0.68440100  1
  C  C67  1  0.22040000  0.05495600  0.18440100  1
  C  C68  1  0.78462600  0.15896400  0.54697500  1
  C  C69  1  0.71537400  0.15896400  0.04697500  1
  C  C70  1  0.21537400  0.84103600  0.45302500  1
  C  C71  1  0.28462600  0.84103600  0.95302500  1
  C  C72  1  0.85580900  0.47454700  0.35435500  1
  C  C73  1  0.64419100  0.47454700  0.85435500  1
  C  C74  1  0.14419100  0.52545300  0.64564500  1
  C  C75  1  0.35580900  0.52545300  0.14564500  1
