# generated using pymatgen
data_Cu(NiC)2
_symmetry_space_group_name_H-M   'P 1'
_cell_length_a   4.02394815
_cell_length_b   4.02394815
_cell_length_c   7.05089440
_cell_angle_alpha   106.57541793
_cell_angle_beta   106.57541793
_cell_angle_gamma   90.01465941
_symmetry_Int_Tables_number   1
_chemical_formula_structural   Cu(NiC)2
_chemical_formula_sum   'Cu1 Ni2 C2'
_cell_volume   104.46276933
_cell_formula_units_Z   1
loop_
 _symmetry_equiv_pos_site_id
 _symmetry_equiv_pos_as_xyz
  1  'x, y, z'
loop_
 _atom_site_type_symbol
 _atom_site_label
 _atom_site_symmetry_multiplicity
 _atom_site_fract_x
 _atom_site_fract_y
 _atom_site_fract_z
 _atom_site_occupancy
  Ni  Ni0  1  0.34707600  0.34467000  0.69174600  1
  Ni  Ni1  1  0.65533000  0.65292400  0.30825400  1
  Cu  Cu2  1  0.00828800  0.99171200  0.00000000  1
  C  C3  1  0.25257500  0.74742500  0.50000000  1
  C  C4  1  0.75257500  0.24742500  0.50000000  1
