# generated using pymatgen
data_Cu14NiC
_symmetry_space_group_name_H-M   'P 1'
_cell_length_a   7.20160224
_cell_length_b   7.20160224
_cell_length_c   7.20160224
_cell_angle_alpha   132.03766358
_cell_angle_beta   111.24931565
_cell_angle_gamma   88.16359211
_symmetry_Int_Tables_number   1
_chemical_formula_structural   Cu14NiC
_chemical_formula_sum   'Cu28 Ni2 C2'
_cell_volume   246.27732788
_cell_formula_units_Z   2
loop_
 _symmetry_equiv_pos_site_id
 _symmetry_equiv_pos_as_xyz
  1  'x, y, z'
loop_
 _atom_site_type_symbol
 _atom_site_label
 _atom_site_symmetry_multiplicity
 _atom_site_fract_x
 _atom_site_fract_y
 _atom_site_fract_z
 _atom_site_occupancy
  C  C0  1  0.89984900  0.25000000  0.64984900  1
  C  C1  1  0.10015100  0.75000000  0.35015100  1
  Ni  Ni2  1  0.50000000  0.50000000  0.50000000  1
  Ni  Ni3  1  0.50000000  0.00000000  0.00000000  1
  Cu  Cu4  1  0.72652200  0.72099200  0.32322500  1
  Cu  Cu5  1  0.73087100  0.35052100  0.38035000  1
  Cu  Cu6  1  0.87673300  0.67143600  0.70758500  1
  Cu  Cu7  1  0.12326700  0.83085100  0.79470300  1
  Cu  Cu8  1  0.53614900  0.82856400  0.20529700  1
  Cu  Cu9  1  0.46385100  0.66914900  0.29241500  1
  Cu  Cu10  1  0.12326700  0.32856400  0.29241500  1
  Cu  Cu11  1  0.87673300  0.16914900  0.20529700  1
  Cu  Cu12  1  0.46385100  0.17143600  0.79470300  1
  Cu  Cu13  1  0.53614900  0.33085100  0.70758500  1
  Cu  Cu14  1  0.10223300  0.77900800  0.00553000  1
  Cu  Cu15  1  0.89776700  0.90329700  0.67677500  1
  Cu  Cu16  1  0.89776700  0.22099200  0.99447000  1
  Cu  Cu17  1  0.27347800  0.59670300  0.99447000  1
  Cu  Cu18  1  0.10223300  0.09670300  0.32322500  1
  Cu  Cu19  1  0.52982800  0.14947900  0.38035000  1
  Cu  Cu20  1  0.27347800  0.27900800  0.67677500  1
  Cu  Cu21  1  0.72652200  0.40329700  0.00553000  1
  Cu  Cu22  1  0.74459400  0.91464600  0.82994800  1
  Cu  Cu23  1  0.25540600  0.08535400  0.17005200  1
  Cu  Cu24  1  0.41530200  0.58535400  0.82994800  1
  Cu  Cu25  1  0.58469800  0.41464600  0.17005200  1
  Cu  Cu26  1  0.86536700  0.83353700  0.03183000  1
  Cu  Cu27  1  0.13463300  0.16646300  0.96817000  1
  Cu  Cu28  1  0.69829300  0.66646300  0.03183000  1
  Cu  Cu29  1  0.30170700  0.33353700  0.96817000  1
  Cu  Cu30  1  0.47017200  0.85052100  0.61965000  1
  Cu  Cu31  1  0.26912900  0.64947900  0.61965000  1
