# generated using pymatgen
data_CuNi3C10
_symmetry_space_group_name_H-M   'P 1'
_cell_length_a   7.98840600
_cell_length_b   6.60899100
_cell_length_c   6.92125820
_cell_angle_alpha   88.95633872
_cell_angle_beta   90.00000000
_cell_angle_gamma   90.00000000
_symmetry_Int_Tables_number   1
_chemical_formula_structural   CuNi3C10
_chemical_formula_sum   'Cu2 Ni6 C20'
_cell_volume   365.34930672
_cell_formula_units_Z   2
loop_
 _symmetry_equiv_pos_site_id
 _symmetry_equiv_pos_as_xyz
  1  'x, y, z'
loop_
 _atom_site_type_symbol
 _atom_site_label
 _atom_site_symmetry_multiplicity
 _atom_site_fract_x
 _atom_site_fract_y
 _atom_site_fract_z
 _atom_site_occupancy
  C  C0  1  0.75000000  0.31491900  0.31459300  1
  C  C1  1  0.25000000  0.68508100  0.68540700  1
  C  C2  1  0.94718600  0.29733300  0.03627900  1
  C  C3  1  0.55281400  0.29733300  0.03627900  1
  C  C4  1  0.95317200  0.07210200  0.18125700  1
  C  C5  1  0.54682800  0.07210200  0.18125700  1
  C  C6  1  0.44325200  0.29427400  0.26067700  1
  C  C7  1  0.05674800  0.29427400  0.26067700  1
  C  C8  1  0.36186500  0.71013700  0.35147600  1
  C  C9  1  0.13813500  0.71013700  0.35147600  1
  C  C10  1  0.25000000  0.93334500  0.41226200  1
  C  C11  1  0.75000000  0.06665500  0.58773800  1
  C  C12  1  0.86186500  0.28986300  0.64852400  1
  C  C13  1  0.63813500  0.28986300  0.64852400  1
  C  C14  1  0.94325200  0.70572600  0.73932300  1
  C  C15  1  0.55674800  0.70572600  0.73932300  1
  C  C16  1  0.45317200  0.92789800  0.81874300  1
  C  C17  1  0.04682800  0.92789800  0.81874300  1
  C  C18  1  0.44718600  0.70266700  0.96372100  1
  C  C19  1  0.05281400  0.70266700  0.96372100  1
  Ni  Ni20  1  0.94504200  0.23829000  0.18577400  1
  Ni  Ni21  1  0.55495800  0.23829000  0.18577400  1
  Ni  Ni22  1  0.25000000  0.76708400  0.42538300  1
  Ni  Ni23  1  0.75000000  0.23291600  0.57461700  1
  Ni  Ni24  1  0.44504200  0.76171000  0.81422600  1
  Ni  Ni25  1  0.05495800  0.76171000  0.81422600  1
  Cu  Cu26  1  0.75000000  0.63551000  0.31528400  1
  Cu  Cu27  1  0.25000000  0.36449000  0.68471600  1
