# generated using pymatgen
data_Cu3NiC11
_symmetry_space_group_name_H-M   'P 1'
_cell_length_a   5.37630243
_cell_length_b   5.37630243
_cell_length_c   5.37630218
_cell_angle_alpha   87.84071280
_cell_angle_beta   87.84071280
_cell_angle_gamma   87.84071160
_symmetry_Int_Tables_number   1
_chemical_formula_structural   Cu3NiC11
_chemical_formula_sum   'Cu3 Ni1 C11'
_cell_volume   155.07707795
_cell_formula_units_Z   1
loop_
 _symmetry_equiv_pos_site_id
 _symmetry_equiv_pos_as_xyz
  1  'x, y, z'
loop_
 _atom_site_type_symbol
 _atom_site_label
 _atom_site_symmetry_multiplicity
 _atom_site_fract_x
 _atom_site_fract_y
 _atom_site_fract_z
 _atom_site_occupancy
  C  C0  1  0.58602700  0.58602700  0.58602700  1
  C  C1  1  0.25163100  0.01756200  0.70364300  1
  C  C2  1  0.25163100  0.70364300  0.01756200  1
  C  C3  1  0.70364300  0.25163100  0.01756200  1
  C  C4  1  0.01756200  0.25163100  0.70364300  1
  C  C5  1  0.01756200  0.70364300  0.25163100  1
  C  C6  1  0.70364300  0.01756200  0.25163100  1
  Ni  Ni7  1  0.98521700  0.98521700  0.98521700  1
  Cu  Cu8  1  0.77758500  0.08827200  0.08827200  1
  Cu  Cu9  1  0.08827200  0.77758500  0.08827200  1
  Cu  Cu10  1  0.08827200  0.08827200  0.77758500  1
  C  C11  1  0.84502800  0.53424300  0.53424300  1
  C  C12  1  0.53424300  0.84502800  0.53424300  1
  C  C13  1  0.53424300  0.53424300  0.84502800  1
  C  C14  1  0.44144000  0.44144000  0.44144000  1
