# generated using pymatgen
data_CuNi2C3
_symmetry_space_group_name_H-M   'P 1'
_cell_length_a   7.89527305
_cell_length_b   7.89527305
_cell_length_c   10.34370892
_cell_angle_alpha   72.52358598
_cell_angle_beta   72.52358598
_cell_angle_gamma   22.16057697
_symmetry_Int_Tables_number   1
_chemical_formula_structural   CuNi2C3
_chemical_formula_sum   'Cu4 Ni8 C12'
_cell_volume   231.54489192
_cell_formula_units_Z   4
loop_
 _symmetry_equiv_pos_site_id
 _symmetry_equiv_pos_as_xyz
  1  'x, y, z'
loop_
 _atom_site_type_symbol
 _atom_site_label
 _atom_site_symmetry_multiplicity
 _atom_site_fract_x
 _atom_site_fract_y
 _atom_site_fract_z
 _atom_site_occupancy
  C  C0  1  0.42228000  0.42228000  0.11992900  1
  C  C1  1  0.08242400  0.08242400  0.12863400  1
  C  C2  1  0.06348400  0.06348400  0.64704000  1
  C  C3  1  0.43282800  0.43282800  0.62797300  1
  C  C4  1  0.92841700  0.92841700  0.36506900  1
  C  C5  1  0.56264000  0.56264000  0.88457900  1
  C  C6  1  0.58169000  0.58169000  0.38270400  1
  C  C7  1  0.93636700  0.93636700  0.85013000  1
  C  C8  1  0.25303800  0.25303800  0.37226200  1
  C  C9  1  0.25560800  0.25560800  0.88202900  1
  C  C10  1  0.75136600  0.75136600  0.12762700  1
  C  C11  1  0.76103600  0.76103600  0.61051700  1
  Ni  Ni12  1  0.32594200  0.32594200  0.01190000  1
  Ni  Ni13  1  0.33162800  0.33162800  0.50320100  1
  Ni  Ni14  1  0.17525700  0.17525700  0.24619400  1
  Ni  Ni15  1  0.82930600  0.82930600  0.25499400  1
  Ni  Ni16  1  0.81878000  0.81878000  0.75773500  1
  Ni  Ni17  1  0.68196800  0.68196800  0.49152100  1
  Ni  Ni18  1  0.67597200  0.67597200  0.99513000  1
  Ni  Ni19  1  0.50253400  0.50253400  0.75074800  1
  Cu  Cu20  1  0.17756300  0.17756300  0.73995200  1
  Cu  Cu21  1  0.00274900  0.00274900  0.00987000  1
  Cu  Cu22  1  0.00303000  0.00303000  0.49072600  1
  Cu  Cu23  1  0.50285300  0.50285300  0.24953600  1
