# generated using pymatgen
data_Cu3Ni2C3
_symmetry_space_group_name_H-M   'P 1'
_cell_length_a   9.19976185
_cell_length_b   9.19976185
_cell_length_c   9.19976158
_cell_angle_alpha   90.04459789
_cell_angle_beta   90.04459789
_cell_angle_gamma   90.04459324
_symmetry_Int_Tables_number   1
_chemical_formula_structural   Cu3Ni2C3
_chemical_formula_sum   'Cu12 Ni8 C12'
_cell_volume   778.62680032
_cell_formula_units_Z   4
loop_
 _symmetry_equiv_pos_site_id
 _symmetry_equiv_pos_as_xyz
  1  'x, y, z'
loop_
 _atom_site_type_symbol
 _atom_site_label
 _atom_site_symmetry_multiplicity
 _atom_site_fract_x
 _atom_site_fract_y
 _atom_site_fract_z
 _atom_site_occupancy
  Ni  Ni0  1  0.24847400  0.24386900  0.74415600  1
  Ni  Ni1  1  0.74415600  0.24847400  0.24386900  1
  Ni  Ni2  1  0.24386900  0.74415600  0.24847400  1
  Ni  Ni3  1  0.75152600  0.75613100  0.25584400  1
  Ni  Ni4  1  0.25584400  0.75152600  0.75613100  1
  Ni  Ni5  1  0.75613100  0.25584400  0.75152600  1
  Ni  Ni6  1  0.74843000  0.74843000  0.74843000  1
  Ni  Ni7  1  0.25157000  0.25157000  0.25157000  1
  Cu  Cu8  1  0.83519400  0.68149400  0.00368400  1
  Cu  Cu9  1  0.00368400  0.83519400  0.68149400  1
  Cu  Cu10  1  0.68149400  0.00368400  0.83519400  1
  Cu  Cu11  1  0.16480600  0.31850600  0.99631600  1
  Cu  Cu12  1  0.99631600  0.16480600  0.31850600  1
  Cu  Cu13  1  0.31850600  0.99631600  0.16480600  1
  Cu  Cu14  1  0.66546600  0.18073700  0.49918100  1
  Cu  Cu15  1  0.49918100  0.66546600  0.18073700  1
  Cu  Cu16  1  0.18073700  0.49918100  0.66546600  1
  Cu  Cu17  1  0.33453400  0.81926300  0.50081900  1
  Cu  Cu18  1  0.50081900  0.33453400  0.81926300  1
  Cu  Cu19  1  0.81926300  0.50081900  0.33453400  1
  C  C20  1  0.34356400  0.15953700  0.49545000  1
  C  C21  1  0.49545000  0.34356400  0.15953700  1
  C  C22  1  0.15953700  0.49545000  0.34356400  1
  C  C23  1  0.65643600  0.84046300  0.50455000  1
  C  C24  1  0.50455000  0.65643600  0.84046300  1
  C  C25  1  0.84046300  0.50455000  0.65643600  1
  C  C26  1  0.15642300  0.65970200  0.99968500  1
  C  C27  1  0.99968500  0.15642300  0.65970200  1
  C  C28  1  0.65970200  0.99968500  0.15642300  1
  C  C29  1  0.84357700  0.34029800  0.00031500  1
  C  C30  1  0.00031500  0.84357700  0.34029800  1
  C  C31  1  0.34029800  0.00031500  0.84357700  1
