# generated using pymatgen
data_Cu6Ni2C
_symmetry_space_group_name_H-M   'P 1'
_cell_length_a   11.20794000
_cell_length_b   6.68872700
_cell_length_c   8.06885840
_cell_angle_alpha   62.64613074
_cell_angle_beta   90.00000000
_cell_angle_gamma   90.00000000
_symmetry_Int_Tables_number   1
_chemical_formula_structural   Cu6Ni2C
_chemical_formula_sum   'Cu24 Ni8 C4'
_cell_volume   537.26073215
_cell_formula_units_Z   4
loop_
 _symmetry_equiv_pos_site_id
 _symmetry_equiv_pos_as_xyz
  1  'x, y, z'
loop_
 _atom_site_type_symbol
 _atom_site_label
 _atom_site_symmetry_multiplicity
 _atom_site_fract_x
 _atom_site_fract_y
 _atom_site_fract_z
 _atom_site_occupancy
  C  C0  1  0.89875200  0.15775500  0.02697600  1
  C  C1  1  0.39875200  0.84224500  0.47302400  1
  C  C2  1  0.60124800  0.15775500  0.52697600  1
  C  C3  1  0.10124800  0.84224500  0.97302400  1
  Ni  Ni4  1  0.20688300  0.35374100  0.93018100  1
  Ni  Ni5  1  0.70688300  0.64625900  0.56981900  1
  Ni  Ni6  1  0.08062200  0.78548400  0.46146000  1
  Ni  Ni7  1  0.58062200  0.21451600  0.03854000  1
  Ni  Ni8  1  0.41937800  0.78548400  0.96146000  1
  Ni  Ni9  1  0.91937800  0.21451600  0.53854000  1
  Ni  Ni10  1  0.29311700  0.35374100  0.43018100  1
  Ni  Ni11  1  0.79311700  0.64625900  0.06981900  1
  Cu  Cu12  1  0.08277000  0.14534200  0.98644000  1
  Cu  Cu13  1  0.89451900  0.35066500  0.69097800  1
  Cu  Cu14  1  0.61125400  0.41682800  0.58873400  1
  Cu  Cu15  1  0.21289500  0.45034500  0.67811600  1
  Cu  Cu16  1  0.71289500  0.54965500  0.82188400  1
  Cu  Cu17  1  0.71815900  0.04030600  0.09999700  1
  Cu  Cu18  1  0.46227300  0.01089300  0.17255400  1
  Cu  Cu19  1  0.11125400  0.58317200  0.91126600  1
  Cu  Cu20  1  0.96227300  0.98910700  0.32744600  1
  Cu  Cu21  1  0.21815900  0.95969400  0.40000300  1
  Cu  Cu22  1  0.39451900  0.64933500  0.80902200  1
  Cu  Cu23  1  0.58277000  0.85465800  0.51356000  1
  Cu  Cu24  1  0.41723000  0.14534200  0.48644000  1
  Cu  Cu25  1  0.60548100  0.35066500  0.19097800  1
  Cu  Cu26  1  0.78184100  0.04030600  0.59999700  1
  Cu  Cu27  1  0.03772700  0.01089300  0.67255400  1
  Cu  Cu28  1  0.88874600  0.41682800  0.08873400  1
  Cu  Cu29  1  0.53772700  0.98910700  0.82744600  1
  Cu  Cu30  1  0.28184100  0.95969400  0.90000300  1
  Cu  Cu31  1  0.28710500  0.45034500  0.17811600  1
  Cu  Cu32  1  0.78710500  0.54965500  0.32188400  1
  Cu  Cu33  1  0.38874600  0.58317200  0.41126600  1
  Cu  Cu34  1  0.10548100  0.64933500  0.30902200  1
  Cu  Cu35  1  0.91723000  0.85465800  0.01356000  1
