# generated using pymatgen
data_CuNiC
_symmetry_space_group_name_H-M   'P 1'
_cell_length_a   4.64081100
_cell_length_b   7.40020100
_cell_length_c   7.96904100
_cell_angle_alpha   90.00000000
_cell_angle_beta   90.00000000
_cell_angle_gamma   90.00000000
_symmetry_Int_Tables_number   1
_chemical_formula_structural   CuNiC
_chemical_formula_sum   'Cu4 Ni4 C4'
_cell_volume   273.68025072
_cell_formula_units_Z   4
loop_
 _symmetry_equiv_pos_site_id
 _symmetry_equiv_pos_as_xyz
  1  'x, y, z'
loop_
 _atom_site_type_symbol
 _atom_site_label
 _atom_site_symmetry_multiplicity
 _atom_site_fract_x
 _atom_site_fract_y
 _atom_site_fract_z
 _atom_site_occupancy
  C  C0  1  0.75000000  0.99212200  0.69808400  1
  C  C1  1  0.25000000  0.00787800  0.30191600  1
  C  C2  1  0.75000000  0.49212200  0.80191600  1
  C  C3  1  0.25000000  0.50787800  0.19808400  1
  Ni  Ni4  1  0.75000000  0.31393300  0.40945100  1
  Ni  Ni5  1  0.25000000  0.18606700  0.90945100  1
  Ni  Ni6  1  0.25000000  0.68606700  0.59054900  1
  Ni  Ni7  1  0.75000000  0.81393300  0.09054900  1
  Cu  Cu8  1  0.25000000  0.80234400  0.91516800  1
  Cu  Cu9  1  0.25000000  0.30234400  0.58483200  1
  Cu  Cu10  1  0.75000000  0.69765600  0.41516800  1
  Cu  Cu11  1  0.75000000  0.19765600  0.08483200  1
