# generated using pymatgen
data_Cu4(NiC4)3
_symmetry_space_group_name_H-M   'P 1'
_cell_length_a   9.25340523
_cell_length_b   9.25340523
_cell_length_c   9.25340523
_cell_angle_alpha   109.47122063
_cell_angle_beta   109.47122063
_cell_angle_gamma   109.47122063
_symmetry_Int_Tables_number   1
_chemical_formula_structural   Cu4(NiC4)3
_chemical_formula_sum   'Cu8 Ni6 C24'
_cell_volume   609.93401435
_cell_formula_units_Z   2
loop_
 _symmetry_equiv_pos_site_id
 _symmetry_equiv_pos_as_xyz
  1  'x, y, z'
loop_
 _atom_site_type_symbol
 _atom_site_label
 _atom_site_symmetry_multiplicity
 _atom_site_fract_x
 _atom_site_fract_y
 _atom_site_fract_z
 _atom_site_occupancy
  C  C0  1  0.65644500  0.18740900  0.26975600  1
  C  C1  1  0.61331100  0.34355500  0.03096500  1
  C  C2  1  0.81259100  0.58234600  0.46903500  1
  C  C3  1  0.91765400  0.73024400  0.88668900  1
  C  C4  1  0.58234600  0.46903500  0.81259100  1
  C  C5  1  0.03096500  0.61331100  0.34355500  1
  C  C6  1  0.73024400  0.88668900  0.91765400  1
  C  C7  1  0.96903500  0.08234600  0.31259100  1
  C  C8  1  0.38668900  0.23024400  0.41765400  1
  C  C9  1  0.23024400  0.41765400  0.38668900  1
  C  C10  1  0.11331100  0.53096500  0.84355500  1
  C  C11  1  0.26975600  0.65644500  0.18740900  1
  C  C12  1  0.18740900  0.26975600  0.65644500  1
  C  C13  1  0.31259100  0.96903500  0.08234600  1
  C  C14  1  0.53096500  0.84355500  0.11331100  1
  C  C15  1  0.41765400  0.38668900  0.23024400  1
  C  C16  1  0.84355500  0.11331100  0.53096500  1
  C  C17  1  0.08234600  0.31259100  0.96903500  1
  C  C18  1  0.68740900  0.15644500  0.76975600  1
  C  C19  1  0.34355500  0.03096500  0.61331100  1
  C  C20  1  0.46903500  0.81259100  0.58234600  1
  C  C21  1  0.88668900  0.91765400  0.73024400  1
  C  C22  1  0.15644500  0.76975600  0.68740900  1
  C  C23  1  0.76975600  0.68740900  0.15644500  1
  Ni  Ni24  1  0.62500000  0.75000000  0.37500000  1
  Ni  Ni25  1  0.75000000  0.37500000  0.62500000  1
  Ni  Ni26  1  0.25000000  0.12500000  0.87500000  1
  Ni  Ni27  1  0.37500000  0.62500000  0.75000000  1
  Ni  Ni28  1  0.12500000  0.87500000  0.25000000  1
  Ni  Ni29  1  0.87500000  0.25000000  0.12500000  1
  Cu  Cu30  1  0.50000000  0.00000000  0.40644800  1
  Cu  Cu31  1  0.90644800  0.50000000  0.00000000  1
  Cu  Cu32  1  0.00000000  0.90644800  0.50000000  1
  Cu  Cu33  1  0.59355200  0.59355200  0.59355200  1
  Cu  Cu34  1  0.00000000  0.40644800  0.50000000  1
  Cu  Cu35  1  0.09355200  0.09355200  0.09355200  1
  Cu  Cu36  1  0.40644800  0.50000000  0.00000000  1
  Cu  Cu37  1  0.50000000  0.00000000  0.90644800  1
