# generated using pymatgen
data_Cu10Ni8C59
_symmetry_space_group_name_H-M   'P 1'
_cell_length_a   9.39967700
_cell_length_b   9.44952548
_cell_length_c   9.50482514
_cell_angle_alpha   119.55337449
_cell_angle_beta   93.94874007
_cell_angle_gamma   101.19505858
_symmetry_Int_Tables_number   1
_chemical_formula_structural   Cu10Ni8C59
_chemical_formula_sum   'Cu10 Ni8 C59'
_cell_volume   706.89581127
_cell_formula_units_Z   1
loop_
 _symmetry_equiv_pos_site_id
 _symmetry_equiv_pos_as_xyz
  1  'x, y, z'
loop_
 _atom_site_type_symbol
 _atom_site_label
 _atom_site_symmetry_multiplicity
 _atom_site_fract_x
 _atom_site_fract_y
 _atom_site_fract_z
 _atom_site_occupancy
  C  C0  1  0.00000000  0.00000000  0.00000000  1
  C  C1  1  0.86351100  0.52202600  0.18696500  1
  C  C2  1  0.13648900  0.47797400  0.81303500  1
  C  C3  1  0.80657800  0.61379800  0.22019000  1
  C  C4  1  0.19342200  0.38620200  0.77981000  1
  C  C5  1  0.87634300  0.37885300  0.67925900  1
  C  C6  1  0.12365700  0.62114700  0.32074100  1
  C  C7  1  0.80742100  0.08019800  0.80330400  1
  C  C8  1  0.19257900  0.91980200  0.19669600  1
  C  C9  1  0.79691500  0.37866700  0.85473000  1
  C  C10  1  0.20308500  0.62133300  0.14527000  1
  C  C11  1  0.88110600  0.19082500  0.02919800  1
  C  C12  1  0.11889400  0.80917500  0.97080200  1
  C  C13  1  0.54816600  0.64342300  0.67248300  1
  C  C14  1  0.45183400  0.35657700  0.32751700  1
  C  C15  1  0.66754300  0.83690100  0.62895200  1
  C  C16  1  0.33245700  0.16309900  0.37104800  1
  C  C17  1  0.58843500  0.94527000  0.77731900  1
  C  C18  1  0.41156500  0.05473000  0.22268100  1
  C  C19  1  0.70440800  0.04896900  0.68056800  1
  C  C20  1  0.29559200  0.95103100  0.31943200  1
  C  C21  1  0.98529800  0.19672200  0.62544700  1
  C  C22  1  0.01470200  0.80327800  0.37455300  1
  C  C23  1  0.14373500  0.33244600  0.63009200  1
  C  C24  1  0.85626500  0.66755400  0.36990800  1
  C  C25  1  0.36205000  0.38328500  0.56169600  1
  C  C26  1  0.63795000  0.61671500  0.43830400  1
  C  C27  1  0.36983500  0.29655800  0.49925500  1
  C  C28  1  0.63016500  0.70344200  0.50074500  1
  C  C29  1  0.36145800  0.65843800  0.99080700  1
  C  C30  1  0.63854200  0.34156200  0.00919300  1
  C  C31  1  0.36143600  0.02211300  0.84042800  1
  C  C32  1  0.63856400  0.97788700  0.15957200  1
  C  C33  1  0.99206300  0.07809100  0.54552100  1
  C  C34  1  0.00793700  0.92190900  0.45447900  1
  C  C35  1  0.15712500  0.11753900  0.49213800  1
  C  C36  1  0.84287500  0.88246100  0.50786200  1
  C  C37  1  0.36885500  0.53824800  0.90991700  1
  C  C38  1  0.63114500  0.46175200  0.09008300  1
  C  C39  1  0.37182500  0.81093300  0.69948200  1
  C  C40  1  0.62817500  0.18906700  0.30051800  1
  C  C41  1  0.15097300  0.48414500  0.98211300  1
  C  C42  1  0.84902700  0.51585500  0.01788700  1
  C  C43  1  0.98897900  0.71666900  0.82491800  1
  C  C44  1  0.01102100  0.28333100  0.17508200  1
  C  C45  1  0.10650800  0.18485500  0.65205400  1
  C  C46  1  0.89349200  0.81514500  0.34794600  1
  C  C47  1  0.32620000  0.23899900  0.58084500  1
  C  C48  1  0.67380000  0.76100100  0.41915500  1
  C  C49  1  0.32318900  0.87583600  0.86140800  1
  C  C50  1  0.67681100  0.12416400  0.13859200  1
  C  C51  1  0.11353700  0.06179300  0.57291100  1
  C  C52  1  0.88646300  0.93820700  0.42708900  1
  C  C53  1  0.32937800  0.75511300  0.78082300  1
  C  C54  1  0.67062200  0.24488700  0.21917700  1
  C  C55  1  0.11022700  0.70025300  0.85337500  1
  C  C56  1  0.88977300  0.29974700  0.14662500  1
  Ni  Ni57  1  0.16300800  0.26417600  0.54055400  1
  Ni  Ni58  1  0.83699200  0.73582400  0.45944600  1
  Ni  Ni59  1  0.38422100  0.94941000  0.75406700  1
  Ni  Ni60  1  0.61577900  0.05059000  0.24593300  1
  Ni  Ni61  1  0.15976100  0.89523800  0.82687800  1
  Ni  Ni62  1  0.84023900  0.10476200  0.17312200  1
  Ni  Ni63  1  0.16621700  0.76925700  0.74595400  1
  Ni  Ni64  1  0.83378300  0.23074300  0.25404600  1
  C  C65  1  0.68890500  0.29273500  0.44141100  1
  C  C66  1  0.31109500  0.70726500  0.55858900  1
  Cu  Cu67  1  0.84730300  0.68833600  0.13855000  1
  Cu  Cu68  1  0.15269700  0.31166400  0.86145000  1
  Cu  Cu69  1  0.88365000  0.17719600  0.79782200  1
  Cu  Cu70  1  0.11635000  0.82280400  0.20217800  1
  Cu  Cu71  1  0.88906100  0.25925000  0.93940100  1
  Cu  Cu72  1  0.11093900  0.74075000  0.06059900  1
  Cu  Cu73  1  0.65268100  0.64206800  0.70579200  1
  Cu  Cu74  1  0.34731900  0.35793200  0.29420800  1
  Cu  Cu75  1  0.69733600  0.94530900  0.78277700  1
  Cu  Cu76  1  0.30266400  0.05469100  0.21722300  1
