# generated using pymatgen
data_Cu2NiC7
_symmetry_space_group_name_H-M   'P 1'
_cell_length_a   5.08611700
_cell_length_b   8.21505700
_cell_length_c   11.02135800
_cell_angle_alpha   90.00000000
_cell_angle_beta   90.00000000
_cell_angle_gamma   90.00000000
_symmetry_Int_Tables_number   1
_chemical_formula_structural   Cu2NiC7
_chemical_formula_sum   'Cu8 Ni4 C28'
_cell_volume   460.50254748
_cell_formula_units_Z   4
loop_
 _symmetry_equiv_pos_site_id
 _symmetry_equiv_pos_as_xyz
  1  'x, y, z'
loop_
 _atom_site_type_symbol
 _atom_site_label
 _atom_site_symmetry_multiplicity
 _atom_site_fract_x
 _atom_site_fract_y
 _atom_site_fract_z
 _atom_site_occupancy
  C  C0  1  0.26003200  0.67729100  0.18475800  1
  C  C1  1  0.76003200  0.17729100  0.31524200  1
  C  C2  1  0.26003200  0.82270900  0.68475800  1
  C  C3  1  0.76003200  0.32270900  0.81524200  1
  C  C4  1  0.75432100  0.86886700  0.12014600  1
  C  C5  1  0.25432100  0.36886700  0.37985400  1
  C  C6  1  0.75432100  0.63113300  0.62014600  1
  C  C7  1  0.25432100  0.13113300  0.87985400  1
  Ni  Ni8  1  0.25708700  0.07910900  0.17318100  1
  Ni  Ni9  1  0.75708700  0.57910900  0.32681900  1
  Ni  Ni10  1  0.25708700  0.42089100  0.67318100  1
  Ni  Ni11  1  0.75708700  0.92089100  0.82681900  1
  Cu  Cu12  1  0.59077300  0.45406200  0.01667800  1
  Cu  Cu13  1  0.82361100  0.32969000  0.04345400  1
  Cu  Cu14  1  0.32361100  0.82969000  0.45654600  1
  Cu  Cu15  1  0.09077300  0.95406200  0.48332200  1
  Cu  Cu16  1  0.59077300  0.04593800  0.51667800  1
  Cu  Cu17  1  0.82361100  0.17031000  0.54345400  1
  Cu  Cu18  1  0.32361100  0.67031000  0.95654600  1
  Cu  Cu19  1  0.09077300  0.54593800  0.98332200  1
  C  C20  1  0.25789100  0.58947300  0.01460500  1
  C  C21  1  0.18952300  0.17255500  0.05509900  1
  C  C22  1  0.14063100  0.90353100  0.16745500  1
  C  C23  1  0.55985500  0.06411500  0.19179500  1
  C  C24  1  0.63670900  0.67269500  0.21757500  1
  C  C25  1  0.13670900  0.17269500  0.28242500  1
  C  C26  1  0.05985500  0.56411500  0.30820500  1
  C  C27  1  0.64063100  0.40353100  0.33254500  1
  C  C28  1  0.68952300  0.67255500  0.44490100  1
  C  C29  1  0.75789100  0.08947300  0.48539500  1
  C  C30  1  0.25789100  0.91052700  0.51460500  1
  C  C31  1  0.18952300  0.32744500  0.55509900  1
  C  C32  1  0.14063100  0.59646900  0.66745500  1
  C  C33  1  0.55985500  0.43588500  0.69179500  1
  C  C34  1  0.63670900  0.82730500  0.71757500  1
  C  C35  1  0.13670900  0.32730500  0.78242500  1
  C  C36  1  0.05985500  0.93588500  0.80820500  1
  C  C37  1  0.64063100  0.09646900  0.83254500  1
  C  C38  1  0.68952300  0.82744500  0.94490100  1
  C  C39  1  0.75789100  0.41052700  0.98539500  1
