# generated using pymatgen
data_Cu19Ni5C6
_symmetry_space_group_name_H-M   'P 1'
_cell_length_a   5.37556700
_cell_length_b   5.53360480
_cell_length_c   14.85943603
_cell_angle_alpha   100.51402801
_cell_angle_beta   89.61164723
_cell_angle_gamma   92.54004249
_symmetry_Int_Tables_number   1
_chemical_formula_structural   Cu19Ni5C6
_chemical_formula_sum   'Cu19 Ni5 C6'
_cell_volume   434.16404528
_cell_formula_units_Z   1
loop_
 _symmetry_equiv_pos_site_id
 _symmetry_equiv_pos_as_xyz
  1  'x, y, z'
loop_
 _atom_site_type_symbol
 _atom_site_label
 _atom_site_symmetry_multiplicity
 _atom_site_fract_x
 _atom_site_fract_y
 _atom_site_fract_z
 _atom_site_occupancy
  C  C0  1  0.94594900  0.98707500  0.00541500  1
  C  C1  1  0.54414800  0.80025000  0.67076800  1
  C  C2  1  0.96461700  0.72191300  0.33751600  1
  C  C3  1  0.43830600  0.52564400  0.99377700  1
  C  C4  1  0.03438900  0.28811600  0.66306700  1
  C  C5  1  0.48921700  0.18033800  0.33192300  1
  Ni  Ni6  1  0.79440000  0.96410500  0.35740700  1
  Ni  Ni7  1  0.71395500  0.79185500  0.02043800  1
  Ni  Ni8  1  0.77339700  0.63821300  0.68848600  1
  Ni  Ni9  1  0.21449300  0.70429800  0.97639500  1
  Ni  Ni10  1  0.20096000  0.05005400  0.64524600  1
  Cu  Cu11  1  0.28026900  0.86685300  0.30982500  1
  Cu  Cu12  1  0.94558100  0.95854800  0.88491600  1
  Cu  Cu13  1  0.56598800  0.81074500  0.55232200  1
  Cu  Cu14  1  0.92959700  0.60729200  0.21959300  1
  Cu  Cu15  1  0.40697400  0.88097700  0.78036300  1
  Cu  Cu16  1  0.08764200  0.69276300  0.44476200  1
  Cu  Cu17  1  0.44355300  0.54635600  0.11395900  1
  Cu  Cu18  1  0.70253000  0.48357200  0.35715600  1
  Cu  Cu19  1  0.79894900  0.27699300  0.02612500  1
  Cu  Cu20  1  0.28943400  0.53451300  0.63965900  1
  Cu  Cu21  1  0.21667000  0.34346600  0.30728300  1
  Cu  Cu22  1  0.59608800  0.45140600  0.88751200  1
  Cu  Cu23  1  0.90634600  0.29371200  0.55360700  1
  Cu  Cu24  1  0.59936400  0.11110300  0.21799400  1
  Cu  Cu25  1  0.07365200  0.40713700  0.78144100  1
  Cu  Cu26  1  0.42926000  0.20113300  0.45034200  1
  Cu  Cu27  1  0.10198400  0.04031500  0.11230800  1
  Cu  Cu28  1  0.72157200  0.12493400  0.69372000  1
  Cu  Cu29  1  0.29071700  0.21632000  0.97667100  1
