# generated using pymatgen
data_Cu(Ni2C3)3
_symmetry_space_group_name_H-M   'P 1'
_cell_length_a   6.98623300
_cell_length_b   9.67922230
_cell_length_c   12.87159687
_cell_angle_alpha   84.14986947
_cell_angle_beta   83.15207640
_cell_angle_gamma   88.78665065
_symmetry_Int_Tables_number   1
_chemical_formula_structural   Cu(Ni2C3)3
_chemical_formula_sum   'Cu2 Ni12 C18'
_cell_volume   859.64823970
_cell_formula_units_Z   2
loop_
 _symmetry_equiv_pos_site_id
 _symmetry_equiv_pos_as_xyz
  1  'x, y, z'
loop_
 _atom_site_type_symbol
 _atom_site_label
 _atom_site_symmetry_multiplicity
 _atom_site_fract_x
 _atom_site_fract_y
 _atom_site_fract_z
 _atom_site_occupancy
  C  C0  1  0.23459100  0.40659100  0.09747800  1
  C  C1  1  0.76540900  0.59340900  0.90252200  1
  C  C2  1  0.22269800  0.05368500  0.22511000  1
  C  C3  1  0.77730200  0.94631500  0.77489000  1
  C  C4  1  0.35079700  0.30272100  0.36280300  1
  C  C5  1  0.64920300  0.69727900  0.63719700  1
  C  C6  1  0.07587400  0.13151100  0.40070400  1
  C  C7  1  0.92412600  0.86848900  0.59929600  1
  C  C8  1  0.17503600  0.12428900  0.04143200  1
  C  C9  1  0.82496400  0.87571100  0.95856800  1
  C  C10  1  0.95700100  0.19147000  0.15029100  1
  C  C11  1  0.04299900  0.80853000  0.84970900  1
  C  C12  1  0.38762900  0.53699600  0.26824100  1
  C  C13  1  0.61237100  0.46300400  0.73175900  1
  C  C14  1  0.10461900  0.47190200  0.30929000  1
  C  C15  1  0.89538100  0.52809800  0.69071000  1
  C  C16  1  0.34402200  0.03646500  0.40830600  1
  C  C17  1  0.65597800  0.96353500  0.59169400  1
  Ni  Ni18  1  0.40520000  0.65521700  0.00357800  1
  Ni  Ni19  1  0.59480000  0.34478300  0.99642200  1
  Ni  Ni20  1  0.49492400  0.06465600  0.83440900  1
  Ni  Ni21  1  0.50507600  0.93534400  0.16559100  1
  Ni  Ni22  1  0.30243600  0.34463600  0.53821700  1
  Ni  Ni23  1  0.69756400  0.65536400  0.46178300  1
  Ni  Ni24  1  0.69266100  0.29630600  0.35654000  1
  Ni  Ni25  1  0.30733900  0.70369400  0.64346000  1
  Ni  Ni26  1  0.10646200  0.42723800  0.89983500  1
  Ni  Ni27  1  0.89353800  0.57276200  0.10016500  1
  Ni  Ni28  1  0.02993700  0.85836000  0.26206600  1
  Ni  Ni29  1  0.97006300  0.14164000  0.73793400  1
  Cu  Cu30  1  0.35061500  0.24066200  0.21810500  1
  Cu  Cu31  1  0.64938500  0.75933800  0.78189500  1
