# generated using pymatgen
data_Cu8NiC5
_symmetry_space_group_name_H-M   'P 1'
_cell_length_a   7.33585665
_cell_length_b   7.33585665
_cell_length_c   18.90989052
_cell_angle_alpha   86.87852584
_cell_angle_beta   86.87852584
_cell_angle_gamma   120.95976921
_symmetry_Int_Tables_number   1
_chemical_formula_structural   Cu8NiC5
_chemical_formula_sum   'Cu16 Ni2 C10'
_cell_volume   867.30326730
_cell_formula_units_Z   2
loop_
 _symmetry_equiv_pos_site_id
 _symmetry_equiv_pos_as_xyz
  1  'x, y, z'
loop_
 _atom_site_type_symbol
 _atom_site_label
 _atom_site_symmetry_multiplicity
 _atom_site_fract_x
 _atom_site_fract_y
 _atom_site_fract_z
 _atom_site_occupancy
  C  C0  1  0.49926600  0.36126200  0.10564900  1
  C  C1  1  0.36126200  0.49926600  0.60564900  1
  C  C2  1  0.89362500  0.67990700  0.75426500  1
  C  C3  1  0.67990700  0.89362500  0.25426500  1
  C  C4  1  0.58046500  0.03276300  0.89828700  1
  C  C5  1  0.03276300  0.58046500  0.39828700  1
  C  C6  1  0.30506100  0.43238700  0.87634600  1
  C  C7  1  0.43238700  0.30506100  0.37634600  1
  C  C8  1  0.21586100  0.68005800  0.12440200  1
  C  C9  1  0.68005800  0.21586100  0.62440200  1
  Ni  Ni10  1  0.04718000  0.95087900  0.99928900  1
  Ni  Ni11  1  0.95087900  0.04718000  0.49928900  1
  Cu  Cu12  1  0.49214700  0.17515100  0.72369200  1
  Cu  Cu13  1  0.17515100  0.49214700  0.22369200  1
  Cu  Cu14  1  0.07789000  0.07405900  0.87344600  1
  Cu  Cu15  1  0.07405900  0.07789000  0.37344600  1
  Cu  Cu16  1  0.34597600  0.63454800  0.78050900  1
  Cu  Cu17  1  0.63454800  0.34597600  0.28050900  1
  Cu  Cu18  1  0.60155300  0.51040400  0.92094800  1
  Cu  Cu19  1  0.51040400  0.60155300  0.42094800  1
  Cu  Cu20  1  0.10274000  0.54180900  0.93932400  1
  Cu  Cu21  1  0.54180900  0.10274000  0.43932400  1
  Cu  Cu22  1  0.04969400  0.38740100  0.05845500  1
  Cu  Cu23  1  0.38740100  0.04969400  0.55845500  1
  Cu  Cu24  1  0.54488100  0.91350100  0.08397800  1
  Cu  Cu25  1  0.91350100  0.54488100  0.58397800  1
  Cu  Cu26  1  0.00348400  0.82283200  0.12511000  1
  Cu  Cu27  1  0.82283200  0.00348400  0.62511000  1
