# generated using pymatgen
data_Cu12NiC57
_symmetry_space_group_name_H-M   'P 1'
_cell_length_a   14.71316300
_cell_length_b   14.71316300
_cell_length_c   10.79268500
_cell_angle_alpha   90.00000000
_cell_angle_beta   90.00000000
_cell_angle_gamma   90.00000000
_symmetry_Int_Tables_number   1
_chemical_formula_structural   Cu12NiC57
_chemical_formula_sum   'Cu24 Ni2 C114'
_cell_volume   2336.36985655
_cell_formula_units_Z   2
loop_
 _symmetry_equiv_pos_site_id
 _symmetry_equiv_pos_as_xyz
  1  'x, y, z'
loop_
 _atom_site_type_symbol
 _atom_site_label
 _atom_site_symmetry_multiplicity
 _atom_site_fract_x
 _atom_site_fract_y
 _atom_site_fract_z
 _atom_site_occupancy
  C  C0  1  0.75000000  0.75000000  0.00000000  1
  C  C1  1  0.25000000  0.25000000  0.00000000  1
  C  C2  1  0.25000000  0.75000000  0.00000000  1
  C  C3  1  0.75000000  0.25000000  0.00000000  1
  Ni  Ni4  1  0.00000000  0.50000000  0.81810000  1
  Ni  Ni5  1  0.50000000  0.00000000  0.18190000  1
  C  C6  1  0.50000000  0.50000000  0.50000000  1
  C  C7  1  0.00000000  0.00000000  0.50000000  1
  Cu  Cu8  1  0.55259600  0.73909000  0.48982500  1
  Cu  Cu9  1  0.44740400  0.26091000  0.48982500  1
  Cu  Cu10  1  0.23909000  0.94740400  0.48982500  1
  Cu  Cu11  1  0.76091000  0.05259600  0.48982500  1
  Cu  Cu12  1  0.94740400  0.76091000  0.51017500  1
  Cu  Cu13  1  0.05259600  0.23909000  0.51017500  1
  Cu  Cu14  1  0.26091000  0.55259600  0.51017500  1
  Cu  Cu15  1  0.73909000  0.44740400  0.51017500  1
  Cu  Cu16  1  0.64877500  0.58549400  0.73639100  1
  Cu  Cu17  1  0.35122500  0.41450600  0.73639100  1
  Cu  Cu18  1  0.08549400  0.85122500  0.73639100  1
  Cu  Cu19  1  0.91450600  0.14877500  0.73639100  1
  Cu  Cu20  1  0.85122500  0.91450600  0.26360900  1
  Cu  Cu21  1  0.14877500  0.08549400  0.26360900  1
  Cu  Cu22  1  0.41450600  0.64877500  0.26360900  1
  Cu  Cu23  1  0.58549400  0.35122500  0.26360900  1
  Cu  Cu24  1  0.64202900  0.60049000  0.26334900  1
  Cu  Cu25  1  0.35797100  0.39951000  0.26334900  1
  Cu  Cu26  1  0.10049000  0.85797100  0.26334900  1
  Cu  Cu27  1  0.89951000  0.14202900  0.26334900  1
  Cu  Cu28  1  0.85797100  0.89951000  0.73665100  1
  Cu  Cu29  1  0.14202900  0.10049000  0.73665100  1
  Cu  Cu30  1  0.39951000  0.64202900  0.73665100  1
  Cu  Cu31  1  0.60049000  0.35797100  0.73665100  1
  C  C32  1  0.57845900  0.85110100  0.52452200  1
  C  C33  1  0.42154100  0.14889900  0.52452200  1
  C  C34  1  0.35110100  0.92154100  0.52452200  1
  C  C35  1  0.64889900  0.07845900  0.52452200  1
  C  C36  1  0.92154100  0.64889900  0.47547800  1
  C  C37  1  0.07845900  0.35110100  0.47547800  1
  C  C38  1  0.14889900  0.57845900  0.47547800  1
  C  C39  1  0.85110100  0.42154100  0.47547800  1
  C  C40  1  0.70566900  0.64938500  0.84889400  1
  C  C41  1  0.29433100  0.35061500  0.84889400  1
  C  C42  1  0.14938500  0.79433100  0.84889400  1
  C  C43  1  0.85061500  0.20566900  0.84889400  1
  C  C44  1  0.79433100  0.85061500  0.15110600  1
  C  C45  1  0.20566900  0.14938500  0.15110600  1
  C  C46  1  0.35061500  0.70566900  0.15110600  1
  C  C47  1  0.64938500  0.29433100  0.15110600  1
  C  C48  1  0.72351100  0.62796600  0.15086000  1
  C  C49  1  0.27648900  0.37203400  0.15086000  1
  C  C50  1  0.12796600  0.77648900  0.15086000  1
  C  C51  1  0.87203400  0.22351100  0.15086000  1
  C  C52  1  0.77648900  0.87203400  0.84914000  1
  C  C53  1  0.22351100  0.12796600  0.84914000  1
  C  C54  1  0.37203400  0.72351100  0.84914000  1
  C  C55  1  0.62796600  0.27648900  0.84914000  1
  C  C56  1  0.62920600  0.67447000  0.60747700  1
  C  C57  1  0.37079400  0.32553000  0.60747700  1
  C  C58  1  0.17447000  0.87079400  0.60747700  1
  C  C59  1  0.82553000  0.12920600  0.60747700  1
  C  C60  1  0.87079400  0.82553000  0.39252300  1
  C  C61  1  0.12920600  0.17447000  0.39252300  1
  C  C62  1  0.32553000  0.62920600  0.39252300  1
  C  C63  1  0.67447000  0.37079400  0.39252300  1
  C  C64  1  0.64370500  0.46765800  0.82026600  1
  C  C65  1  0.35629500  0.53234200  0.82026600  1
  C  C66  1  0.96765800  0.85629500  0.82026600  1
  C  C67  1  0.03234200  0.14370500  0.82026600  1
  C  C68  1  0.85629500  0.03234200  0.17973400  1
  C  C69  1  0.14370500  0.96765800  0.17973400  1
  C  C70  1  0.53234200  0.64370500  0.17973400  1
  C  C71  1  0.46765800  0.35629500  0.17973400  1
  C  C72  1  0.64163800  0.71195700  0.36018000  1
  C  C73  1  0.35836200  0.28804300  0.36018000  1
  C  C74  1  0.21195700  0.85836200  0.36018000  1
  C  C75  1  0.78804300  0.14163800  0.36018000  1
  C  C76  1  0.85836200  0.78804300  0.63982000  1
  C  C77  1  0.14163800  0.21195700  0.63982000  1
  C  C78  1  0.28804300  0.64163800  0.63982000  1
  C  C79  1  0.71195700  0.35836200  0.63982000  1
  C  C80  1  0.75139100  0.53866000  0.64063900  1
  C  C81  1  0.24860900  0.46134000  0.64063900  1
  C  C82  1  0.03866000  0.74860900  0.64063900  1
  C  C83  1  0.96134000  0.25139100  0.64063900  1
  C  C84  1  0.74860900  0.96134000  0.35936100  1
  C  C85  1  0.25139100  0.03866000  0.35936100  1
  C  C86  1  0.46134000  0.75139100  0.35936100  1
  C  C87  1  0.53866000  0.24860900  0.35936100  1
  C  C88  1  0.60769800  0.47696900  0.21848000  1
  C  C89  1  0.39230200  0.52303100  0.21848000  1
  C  C90  1  0.97696900  0.89230200  0.21848000  1
  C  C91  1  0.02303100  0.10769800  0.21848000  1
  C  C92  1  0.89230200  0.02303100  0.78152000  1
  C  C93  1  0.10769800  0.97696900  0.78152000  1
  C  C94  1  0.52303100  0.60769800  0.78152000  1
  C  C95  1  0.47696900  0.39230200  0.78152000  1
  C  C96  1  0.71431200  0.54390700  0.39123700  1
  C  C97  1  0.28568800  0.45609300  0.39123700  1
  C  C98  1  0.04390700  0.78568800  0.39123700  1
  C  C99  1  0.95609300  0.21431200  0.39123700  1
  C  C100  1  0.78568800  0.95609300  0.60876300  1
  C  C101  1  0.21431200  0.04390700  0.60876300  1
  C  C102  1  0.45609300  0.71431200  0.60876300  1
  C  C103  1  0.54390700  0.28568800  0.60876300  1
  C  C104  1  0.51935000  0.58831000  0.41041800  1
  C  C105  1  0.48065000  0.41169000  0.41041800  1
  C  C106  1  0.08831000  0.98065000  0.41041800  1
  C  C107  1  0.91169000  0.01935000  0.41041800  1
  C  C108  1  0.98065000  0.91169000  0.58958200  1
  C  C109  1  0.01935000  0.08831000  0.58958200  1
  C  C110  1  0.41169000  0.51935000  0.58958200  1
  C  C111  1  0.58831000  0.48065000  0.58958200  1
  C  C112  1  0.00000000  0.50000000  0.60805000  1
  C  C113  1  0.50000000  0.00000000  0.39195000  1
  C  C114  1  0.09000900  0.57679500  0.75427000  1
  C  C115  1  0.90999100  0.42320500  0.75427000  1
  C  C116  1  0.07679500  0.40999100  0.75427000  1
  C  C117  1  0.92320500  0.59000900  0.75427000  1
  C  C118  1  0.40999100  0.92320500  0.24573000  1
  C  C119  1  0.59000900  0.07679500  0.24573000  1
  C  C120  1  0.42320500  0.09000900  0.24573000  1
  C  C121  1  0.57679500  0.90999100  0.24573000  1
  C  C122  1  0.00000000  0.50000000  0.96869300  1
  C  C123  1  0.50000000  0.00000000  0.03130700  1
  C  C124  1  0.91783100  0.69453700  0.98464500  1
  C  C125  1  0.08216900  0.30546300  0.98464500  1
  C  C126  1  0.19453700  0.58216900  0.98464500  1
  C  C127  1  0.80546300  0.41783100  0.98464500  1
  C  C128  1  0.58216900  0.80546300  0.01535500  1
  C  C129  1  0.41783100  0.19453700  0.01535500  1
  C  C130  1  0.30546300  0.91783100  0.01535500  1
  C  C131  1  0.69453700  0.08216900  0.01535500  1
  C  C132  1  0.97553000  0.56499300  0.19716700  1
  C  C133  1  0.02447000  0.43500700  0.19716700  1
  C  C134  1  0.06499300  0.52447000  0.19716700  1
  C  C135  1  0.93500700  0.47553000  0.19716700  1
  C  C136  1  0.52447000  0.93500700  0.80283300  1
  C  C137  1  0.47553000  0.06499300  0.80283300  1
  C  C138  1  0.43500700  0.97553000  0.80283300  1
  C  C139  1  0.56499300  0.02447000  0.80283300  1
