# generated using pymatgen
data_Cu11NiC4
_symmetry_space_group_name_H-M   'P 1'
_cell_length_a   9.95162500
_cell_length_b   9.78077700
_cell_length_c   11.99934767
_cell_angle_alpha   52.64129866
_cell_angle_beta   90.00000000
_cell_angle_gamma   90.00000000
_symmetry_Int_Tables_number   1
_chemical_formula_structural   Cu11NiC4
_chemical_formula_sum   'Cu44 Ni4 C16'
_cell_volume   928.34923071
_cell_formula_units_Z   4
loop_
 _symmetry_equiv_pos_site_id
 _symmetry_equiv_pos_as_xyz
  1  'x, y, z'
loop_
 _atom_site_type_symbol
 _atom_site_label
 _atom_site_symmetry_multiplicity
 _atom_site_fract_x
 _atom_site_fract_y
 _atom_site_fract_z
 _atom_site_occupancy
  C  C0  1  0.69096300  0.20342600  0.10049800  1
  C  C1  1  0.80903700  0.20342600  0.60049800  1
  C  C2  1  0.30903700  0.79657400  0.89950200  1
  C  C3  1  0.19096300  0.79657400  0.39950200  1
  C  C4  1  0.44862000  0.48241600  0.39784900  1
  C  C5  1  0.05138000  0.48241600  0.89784900  1
  C  C6  1  0.55138000  0.51758400  0.60215100  1
  C  C7  1  0.94862000  0.51758400  0.10215100  1
  C  C8  1  0.51246600  0.84469000  0.30186900  1
  C  C9  1  0.98753400  0.84469000  0.80186900  1
  C  C10  1  0.48753400  0.15531000  0.69813100  1
  C  C11  1  0.01246600  0.15531000  0.19813100  1
  C  C12  1  0.68621000  0.33879500  0.29773600  1
  C  C13  1  0.81379000  0.33879500  0.79773600  1
  C  C14  1  0.31379000  0.66120500  0.70226400  1
  C  C15  1  0.18621000  0.66120500  0.20226400  1
  Ni  Ni16  1  0.67658600  0.87834200  0.00940300  1
  Ni  Ni17  1  0.82341400  0.87834200  0.50940300  1
  Ni  Ni18  1  0.32341400  0.12165800  0.99059700  1
  Ni  Ni19  1  0.17658600  0.12165800  0.49059700  1
  Cu  Cu20  1  0.88352700  0.45390200  0.00229600  1
  Cu  Cu21  1  0.61647300  0.45390200  0.50229600  1
  Cu  Cu22  1  0.11647300  0.54609800  0.99770400  1
  Cu  Cu23  1  0.38352700  0.54609800  0.49770400  1
  Cu  Cu24  1  0.87324700  0.09454100  0.19505000  1
  Cu  Cu25  1  0.62675300  0.09454100  0.69505000  1
  Cu  Cu26  1  0.12675300  0.90545900  0.80495000  1
  Cu  Cu27  1  0.37324700  0.90545900  0.30495000  1
  Cu  Cu28  1  0.60074600  0.99939500  0.18853700  1
  Cu  Cu29  1  0.89925400  0.99939500  0.68853700  1
  Cu  Cu30  1  0.39925400  0.00060500  0.81146300  1
  Cu  Cu31  1  0.10074600  0.00060500  0.31146300  1
  Cu  Cu32  1  0.76880800  0.21344500  0.95238800  1
  Cu  Cu33  1  0.73119200  0.21344500  0.45238800  1
  Cu  Cu34  1  0.23119200  0.78655500  0.04761200  1
  Cu  Cu35  1  0.26880800  0.78655500  0.54761200  1
  Cu  Cu36  1  0.67556900  0.22994800  0.24553600  1
  Cu  Cu37  1  0.82443100  0.22994800  0.74553600  1
  Cu  Cu38  1  0.32443100  0.77005200  0.75446400  1
  Cu  Cu39  1  0.17556900  0.77005200  0.25446400  1
  Cu  Cu40  1  0.58818900  0.35961700  0.99985400  1
  Cu  Cu41  1  0.91181100  0.35961700  0.49985400  1
  Cu  Cu42  1  0.41181100  0.64038300  0.00014600  1
  Cu  Cu43  1  0.08818900  0.64038300  0.50014600  1
  Cu  Cu44  1  0.08235100  0.24703500  0.05125600  1
  Cu  Cu45  1  0.41764900  0.24703500  0.55125600  1
  Cu  Cu46  1  0.91764900  0.75296500  0.94874400  1
  Cu  Cu47  1  0.58235100  0.75296500  0.44874400  1
  Cu  Cu48  1  0.01092000  0.28157400  0.23711500  1
  Cu  Cu49  1  0.48908000  0.28157400  0.73711500  1
  Cu  Cu50  1  0.98908000  0.71842600  0.76288500  1
  Cu  Cu51  1  0.51092000  0.71842600  0.26288500  1
  Cu  Cu52  1  0.29445700  0.51751800  0.29643500  1
  Cu  Cu53  1  0.20554300  0.51751800  0.79643500  1
  Cu  Cu54  1  0.70554300  0.48248200  0.70356500  1
  Cu  Cu55  1  0.79445700  0.48248200  0.20356500  1
  Cu  Cu56  1  0.05593400  0.57395600  0.20773300  1
  Cu  Cu57  1  0.44406600  0.57395600  0.70773300  1
  Cu  Cu58  1  0.94406600  0.42604400  0.79226700  1
  Cu  Cu59  1  0.55593400  0.42604400  0.29226700  1
  Cu  Cu60  1  0.64514700  0.72229500  0.81370200  1
  Cu  Cu61  1  0.85485300  0.72229500  0.31370200  1
  Cu  Cu62  1  0.35485300  0.27770500  0.18629800  1
  Cu  Cu63  1  0.14514700  0.27770500  0.68629800  1
