# generated using pymatgen
data_Cu4NiC2
_symmetry_space_group_name_H-M   'P 1'
_cell_length_a   10.85671298
_cell_length_b   10.85671298
_cell_length_c   9.02191379
_cell_angle_alpha   76.94026338
_cell_angle_beta   76.94026338
_cell_angle_gamma   121.64059060
_symmetry_Int_Tables_number   1
_chemical_formula_structural   Cu4NiC2
_chemical_formula_sum   'Cu16 Ni4 C8'
_cell_volume   802.22150245
_cell_formula_units_Z   4
loop_
 _symmetry_equiv_pos_site_id
 _symmetry_equiv_pos_as_xyz
  1  'x, y, z'
loop_
 _atom_site_type_symbol
 _atom_site_label
 _atom_site_symmetry_multiplicity
 _atom_site_fract_x
 _atom_site_fract_y
 _atom_site_fract_z
 _atom_site_occupancy
  C  C0  1  0.26157300  0.73842700  0.75000000  1
  C  C1  1  0.73842700  0.26157300  0.25000000  1
  C  C2  1  0.50000000  0.50000000  0.00000000  1
  C  C3  1  0.50000000  0.50000000  0.50000000  1
  C  C4  1  0.99554400  0.00445600  0.25000000  1
  C  C5  1  0.00445600  0.99554400  0.75000000  1
  C  C6  1  0.24341300  0.75658700  0.25000000  1
  C  C7  1  0.75658700  0.24341300  0.75000000  1
  Ni  Ni8  1  0.65686500  0.90264900  0.10053500  1
  Ni  Ni9  1  0.09735100  0.34313500  0.39946500  1
  Ni  Ni10  1  0.34313500  0.09735100  0.89946500  1
  Ni  Ni11  1  0.90264900  0.65686500  0.60053500  1
  Cu  Cu12  1  0.47162100  0.12451700  0.06097200  1
  Cu  Cu13  1  0.87548300  0.52837900  0.43902800  1
  Cu  Cu14  1  0.52837900  0.87548300  0.93902800  1
  Cu  Cu15  1  0.12451700  0.47162100  0.56097200  1
  Cu  Cu16  1  0.13521600  0.84422300  0.02411200  1
  Cu  Cu17  1  0.15577700  0.86478400  0.47588800  1
  Cu  Cu18  1  0.86478400  0.15577700  0.97588800  1
  Cu  Cu19  1  0.84422300  0.13521600  0.52411200  1
  Cu  Cu20  1  0.73683500  0.75766000  0.12587900  1
  Cu  Cu21  1  0.24234000  0.26316500  0.37412100  1
  Cu  Cu22  1  0.26316500  0.24234000  0.87412100  1
  Cu  Cu23  1  0.75766000  0.73683500  0.62587900  1
  Cu  Cu24  1  0.14691600  0.50066200  0.15591600  1
  Cu  Cu25  1  0.49933800  0.85308400  0.34408400  1
  Cu  Cu26  1  0.85308400  0.49933800  0.84408400  1
  Cu  Cu27  1  0.50066200  0.14691600  0.65591600  1
