# generated using pymatgen
data_Cu11Ni9C10
_symmetry_space_group_name_H-M   'P 1'
_cell_length_a   4.73647716
_cell_length_b   4.73785735
_cell_length_c   15.65390750
_cell_angle_alpha   90.10669152
_cell_angle_beta   90.30268891
_cell_angle_gamma   92.77081051
_symmetry_Int_Tables_number   1
_chemical_formula_structural   Cu11Ni9C10
_chemical_formula_sum   'Cu11 Ni9 C10'
_cell_volume   350.86909881
_cell_formula_units_Z   1
loop_
 _symmetry_equiv_pos_site_id
 _symmetry_equiv_pos_as_xyz
  1  'x, y, z'
loop_
 _atom_site_type_symbol
 _atom_site_label
 _atom_site_symmetry_multiplicity
 _atom_site_fract_x
 _atom_site_fract_y
 _atom_site_fract_z
 _atom_site_occupancy
  C  C0  1  0.00882100  0.99113900  0.99260200  1
  C  C1  1  0.00543400  0.00641100  0.20017100  1
  C  C2  1  0.97922400  0.95988300  0.40764300  1
  C  C3  1  0.05347200  0.00021600  0.60147000  1
  C  C4  1  0.02330900  0.97186900  0.79818100  1
  C  C5  1  0.50403400  0.49762800  0.10207800  1
  C  C6  1  0.47452900  0.52008000  0.49683200  1
  C  C7  1  0.51480700  0.50935100  0.29130100  1
  C  C8  1  0.48071000  0.50442800  0.69595100  1
  C  C9  1  0.47495600  0.52391600  0.91415800  1
  Ni  Ni10  1  0.18911600  0.80499700  0.49758600  1
  Ni  Ni11  1  0.19626300  0.81549100  0.70191900  1
  Ni  Ni12  1  0.19014300  0.80705800  0.89862700  1
  Ni  Ni13  1  0.29864200  0.30154700  0.00522200  1
  Ni  Ni14  1  0.30382700  0.30036200  0.20216900  1
  Ni  Ni15  1  0.31359000  0.30980100  0.58939700  1
  Ni  Ni16  1  0.69904900  0.70220800  0.00520000  1
  Ni  Ni17  1  0.70917200  0.70535400  0.19973500  1
  Ni  Ni18  1  0.67820400  0.68067200  0.39540800  1
  Cu  Cu19  1  0.19658800  0.80911500  0.10290000  1
  Cu  Cu20  1  0.18895500  0.80342900  0.30079300  1
  Cu  Cu21  1  0.28559900  0.28948500  0.39382400  1
  Cu  Cu22  1  0.29852400  0.30636300  0.80834700  1
  Cu  Cu23  1  0.71040500  0.71615200  0.59210800  1
  Cu  Cu24  1  0.69117800  0.69453100  0.80662100  1
  Cu  Cu25  1  0.81168300  0.19396200  0.10212200  1
  Cu  Cu26  1  0.80035900  0.19664300  0.49700800  1
  Cu  Cu27  1  0.80648600  0.18757200  0.30162900  1
  Cu  Cu28  1  0.79996600  0.19636700  0.89681700  1
  Cu  Cu29  1  0.81295300  0.19396800  0.70217800  1
