# generated using pymatgen
data_Cu2NiC
_symmetry_space_group_name_H-M   'P 1'
_cell_length_a   8.41854139
_cell_length_b   8.41854139
_cell_length_c   8.41854077
_cell_angle_alpha   73.97803132
_cell_angle_beta   73.97803132
_cell_angle_gamma   73.97803747
_symmetry_Int_Tables_number   1
_chemical_formula_structural   Cu2NiC
_chemical_formula_sum   'Cu12 Ni6 C6'
_cell_volume   538.13726544
_cell_formula_units_Z   6
loop_
 _symmetry_equiv_pos_site_id
 _symmetry_equiv_pos_as_xyz
  1  'x, y, z'
loop_
 _atom_site_type_symbol
 _atom_site_label
 _atom_site_symmetry_multiplicity
 _atom_site_fract_x
 _atom_site_fract_y
 _atom_site_fract_z
 _atom_site_occupancy
  C  C0  1  0.31973900  0.72771900  0.72771900  1
  C  C1  1  0.72771900  0.31973900  0.72771900  1
  C  C2  1  0.72771900  0.72771900  0.31973900  1
  C  C3  1  0.68026100  0.27228100  0.27228100  1
  C  C4  1  0.27228100  0.68026100  0.27228100  1
  C  C5  1  0.27228100  0.27228100  0.68026100  1
  Ni  Ni6  1  0.10049300  0.40544400  0.10049300  1
  Ni  Ni7  1  0.10049300  0.10049300  0.40544400  1
  Ni  Ni8  1  0.40544400  0.10049300  0.10049300  1
  Ni  Ni9  1  0.89950700  0.89950700  0.59455600  1
  Ni  Ni10  1  0.59455600  0.89950700  0.89950700  1
  Ni  Ni11  1  0.89950700  0.59455600  0.89950700  1
  Cu  Cu12  1  0.96751200  0.35106100  0.96751200  1
  Cu  Cu13  1  0.35106100  0.96751200  0.96751200  1
  Cu  Cu14  1  0.96751200  0.96751200  0.35106100  1
  Cu  Cu15  1  0.64893900  0.03248800  0.03248800  1
  Cu  Cu16  1  0.03248800  0.03248800  0.64893900  1
  Cu  Cu17  1  0.03248800  0.64893900  0.03248800  1
  Cu  Cu18  1  0.97663200  0.66060900  0.66060900  1
  Cu  Cu19  1  0.66060900  0.66060900  0.97663200  1
  Cu  Cu20  1  0.66060900  0.97663200  0.66060900  1
  Cu  Cu21  1  0.33939100  0.02336800  0.33939100  1
  Cu  Cu22  1  0.02336800  0.33939100  0.33939100  1
  Cu  Cu23  1  0.33939100  0.33939100  0.02336800  1
