# generated using pymatgen
data_Cu(NiC)2
_symmetry_space_group_name_H-M   'P 1'
_cell_length_a   4.03152800
_cell_length_b   6.88943966
_cell_length_c   6.88943966
_cell_angle_alpha   70.69907256
_cell_angle_beta   72.98706983
_cell_angle_gamma   72.98706983
_symmetry_Int_Tables_number   1
_chemical_formula_structural   Cu(NiC)2
_chemical_formula_sum   'Cu1 Ni2 C2'
_cell_volume   168.57913990
_cell_formula_units_Z   1
loop_
 _symmetry_equiv_pos_site_id
 _symmetry_equiv_pos_as_xyz
  1  'x, y, z'
loop_
 _atom_site_type_symbol
 _atom_site_label
 _atom_site_symmetry_multiplicity
 _atom_site_fract_x
 _atom_site_fract_y
 _atom_site_fract_z
 _atom_site_occupancy
  C  C0  1  0.20692100  0.29307900  0.29307900  1
  C  C1  1  0.79307900  0.70692100  0.70692100  1
  Ni  Ni2  1  0.50000000  0.77965300  0.22034700  1
  Ni  Ni3  1  0.50000000  0.22034700  0.77965300  1
  Cu  Cu4  1  0.00000000  0.00000000  0.00000000  1
