# generated using pymatgen
data_CuNiC3
_symmetry_space_group_name_H-M   'P 1'
_cell_length_a   5.55403400
_cell_length_b   5.67787300
_cell_length_c   8.03568800
_cell_angle_alpha   90.00000000
_cell_angle_beta   90.00000000
_cell_angle_gamma   90.00000000
_symmetry_Int_Tables_number   1
_chemical_formula_structural   CuNiC3
_chemical_formula_sum   'Cu4 Ni4 C12'
_cell_volume   253.40622216
_cell_formula_units_Z   4
loop_
 _symmetry_equiv_pos_site_id
 _symmetry_equiv_pos_as_xyz
  1  'x, y, z'
loop_
 _atom_site_type_symbol
 _atom_site_label
 _atom_site_symmetry_multiplicity
 _atom_site_fract_x
 _atom_site_fract_y
 _atom_site_fract_z
 _atom_site_occupancy
  Ni  Ni0  1  0.01211000  0.95265700  0.75000000  1
  Ni  Ni1  1  0.48789000  0.45265700  0.75000000  1
  Ni  Ni2  1  0.51211000  0.54734300  0.25000000  1
  Ni  Ni3  1  0.98789000  0.04734300  0.25000000  1
  Cu  Cu4  1  0.00000000  0.50000000  0.00000000  1
  Cu  Cu5  1  0.00000000  0.50000000  0.50000000  1
  Cu  Cu6  1  0.50000000  0.00000000  0.00000000  1
  Cu  Cu7  1  0.50000000  0.00000000  0.50000000  1
  C  C8  1  0.11354500  0.44925400  0.25000000  1
  C  C9  1  0.19419500  0.19726800  0.56122200  1
  C  C10  1  0.19419500  0.19726800  0.93877800  1
  C  C11  1  0.30580500  0.69726800  0.56122200  1
  C  C12  1  0.30580500  0.69726800  0.93877800  1
  C  C13  1  0.38645500  0.94925400  0.25000000  1
  C  C14  1  0.61354500  0.05074600  0.75000000  1
  C  C15  1  0.69419500  0.30273200  0.06122200  1
  C  C16  1  0.69419500  0.30273200  0.43877800  1
  C  C17  1  0.80580500  0.80273200  0.06122200  1
  C  C18  1  0.80580500  0.80273200  0.43877800  1
  C  C19  1  0.88645500  0.55074600  0.75000000  1
