# generated using pymatgen
data_Cu6NiC2
_symmetry_space_group_name_H-M   'P 1'
_cell_length_a   7.48145827
_cell_length_b   7.48145827
_cell_length_c   11.74284300
_cell_angle_alpha   90.00000000
_cell_angle_beta   90.00000000
_cell_angle_gamma   120.00000241
_symmetry_Int_Tables_number   1
_chemical_formula_structural   Cu6NiC2
_chemical_formula_sum   'Cu24 Ni4 C8'
_cell_volume   569.21507279
_cell_formula_units_Z   4
loop_
 _symmetry_equiv_pos_site_id
 _symmetry_equiv_pos_as_xyz
  1  'x, y, z'
loop_
 _atom_site_type_symbol
 _atom_site_label
 _atom_site_symmetry_multiplicity
 _atom_site_fract_x
 _atom_site_fract_y
 _atom_site_fract_z
 _atom_site_occupancy
  C  C0  1  0.00000000  0.00000000  0.63278600  1
  C  C1  1  0.00000000  0.00000000  0.13278600  1
  C  C2  1  0.79734700  0.11500800  0.88301000  1
  C  C3  1  0.31766100  0.20265300  0.88301000  1
  C  C4  1  0.88499200  0.68233900  0.88301000  1
  C  C5  1  0.20265300  0.88499200  0.38301000  1
  C  C6  1  0.68233900  0.79734700  0.38301000  1
  C  C7  1  0.11500800  0.31766100  0.38301000  1
  Ni  Ni8  1  0.66666700  0.33333300  0.59816700  1
  Ni  Ni9  1  0.33333300  0.66666700  0.09816700  1
  Ni  Ni10  1  0.33333300  0.66666700  0.71289000  1
  Ni  Ni11  1  0.66666700  0.33333300  0.21289000  1
  Cu  Cu12  1  0.12856700  0.27982800  0.88331100  1
  Cu  Cu13  1  0.15126100  0.87143300  0.88331100  1
  Cu  Cu14  1  0.72017200  0.84873900  0.88331100  1
  Cu  Cu15  1  0.87143300  0.72017200  0.38331100  1
  Cu  Cu16  1  0.84873900  0.12856700  0.38331100  1
  Cu  Cu17  1  0.27982800  0.15126100  0.38331100  1
  Cu  Cu18  1  0.13177900  0.25661600  0.54336000  1
  Cu  Cu19  1  0.12483800  0.86822100  0.54336000  1
  Cu  Cu20  1  0.74338400  0.87516200  0.54336000  1
  Cu  Cu21  1  0.86822100  0.74338400  0.04336000  1
  Cu  Cu22  1  0.87516200  0.13177900  0.04336000  1
  Cu  Cu23  1  0.25661600  0.12483800  0.04336000  1
  Cu  Cu24  1  0.55399200  0.09943300  0.88262300  1
  Cu  Cu25  1  0.54544100  0.44600800  0.88262300  1
  Cu  Cu26  1  0.90056700  0.45455900  0.88262300  1
  Cu  Cu27  1  0.44600800  0.90056700  0.38262300  1
  Cu  Cu28  1  0.45455900  0.55399200  0.38262300  1
  Cu  Cu29  1  0.09943300  0.54544100  0.38262300  1
  Cu  Cu30  1  0.87567300  0.13137800  0.72299800  1
  Cu  Cu31  1  0.25570600  0.12432700  0.72299800  1
  Cu  Cu32  1  0.86862200  0.74429400  0.72299800  1
  Cu  Cu33  1  0.12432700  0.86862200  0.22299800  1
  Cu  Cu34  1  0.74429400  0.87567300  0.22299800  1
  Cu  Cu35  1  0.13137800  0.25570600  0.22299800  1
