# generated using pymatgen
data_Cu2Ni3C31
_symmetry_space_group_name_H-M   'P 1'
_cell_length_a   8.50557471
_cell_length_b   8.50557471
_cell_length_c   8.50557490
_cell_angle_alpha   61.02742293
_cell_angle_beta   61.02742293
_cell_angle_gamma   61.02742042
_symmetry_Int_Tables_number   1
_chemical_formula_structural   Cu2Ni3C31
_chemical_formula_sum   'Cu2 Ni3 C31'
_cell_volume   445.17454693
_cell_formula_units_Z   1
loop_
 _symmetry_equiv_pos_site_id
 _symmetry_equiv_pos_as_xyz
  1  'x, y, z'
loop_
 _atom_site_type_symbol
 _atom_site_label
 _atom_site_symmetry_multiplicity
 _atom_site_fract_x
 _atom_site_fract_y
 _atom_site_fract_z
 _atom_site_occupancy
  Ni  Ni0  1  0.85763600  0.85763600  0.85763600  1
  Ni  Ni1  1  0.64405100  0.64405100  0.64405100  1
  Ni  Ni2  1  0.35506600  0.35506600  0.35506600  1
  Cu  Cu3  1  0.00307300  0.00307300  0.00307300  1
  Cu  Cu4  1  0.50093800  0.50093800  0.50093800  1
  C  C5  1  0.14233900  0.14233900  0.14233900  1
  C  C6  1  0.54282400  0.95467600  0.24743300  1
  C  C7  1  0.24743300  0.54282400  0.95467600  1
  C  C8  1  0.04519300  0.75033000  0.45485000  1
  C  C9  1  0.75033000  0.45485000  0.04519300  1
  C  C10  1  0.45485000  0.04519300  0.75033000  1
  C  C11  1  0.95467600  0.24743300  0.54282400  1
  C  C12  1  0.51001300  0.88590000  0.67526600  1
  C  C13  1  0.88590000  0.67526600  0.51001300  1
  C  C14  1  0.74389900  0.94188100  0.08980900  1
  C  C15  1  0.67526600  0.51001300  0.88590000  1
  C  C16  1  0.39076600  0.98679100  0.18444900  1
  C  C17  1  0.56739500  0.75823000  0.41098700  1
  C  C18  1  0.08980900  0.74389900  0.94188100  1
  C  C19  1  0.41098700  0.56739500  0.75823000  1
  C  C20  1  0.99771800  0.81634300  0.61863300  1
  C  C21  1  0.75823000  0.41098700  0.56739500  1
  C  C22  1  0.05360600  0.90557600  0.26059600  1
  C  C23  1  0.81634300  0.61863300  0.99771800  1
  C  C24  1  0.18444900  0.39076600  0.98679100  1
  C  C25  1  0.94188100  0.08980900  0.74389900  1
  C  C26  1  0.24030900  0.58720200  0.44596600  1
  C  C27  1  0.98679100  0.18444900  0.39076600  1
  C  C28  1  0.58720200  0.44596600  0.24030900  1
  C  C29  1  0.90557600  0.26059600  0.05360600  1
  C  C30  1  0.44596600  0.24030900  0.58720200  1
  C  C31  1  0.61863300  0.99771800  0.81634300  1
  C  C32  1  0.31361400  0.49742100  0.11922300  1
  C  C33  1  0.26059600  0.05360600  0.90557600  1
  C  C34  1  0.11922300  0.31361400  0.49742100  1
  C  C35  1  0.49742100  0.11922300  0.31361400  1
