# generated using pymatgen
data_CuNi5C9
_symmetry_space_group_name_H-M   'P 1'
_cell_length_a   6.20878933
_cell_length_b   10.07660991
_cell_length_c   9.55243660
_cell_angle_alpha   106.78950479
_cell_angle_beta   107.57119008
_cell_angle_gamma   82.32361515
_symmetry_Int_Tables_number   1
_chemical_formula_structural   CuNi5C9
_chemical_formula_sum   'Cu4 Ni20 C36'
_cell_volume   544.75862257
_cell_formula_units_Z   4
loop_
 _symmetry_equiv_pos_site_id
 _symmetry_equiv_pos_as_xyz
  1  'x, y, z'
loop_
 _atom_site_type_symbol
 _atom_site_label
 _atom_site_symmetry_multiplicity
 _atom_site_fract_x
 _atom_site_fract_y
 _atom_site_fract_z
 _atom_site_occupancy
  C  C0  1  0.09676900  0.26270800  0.05015200  1
  C  C1  1  0.59677500  0.76265100  0.05015100  1
  C  C2  1  0.84686200  0.51256600  0.55016600  1
  C  C3  1  0.34683600  0.01261200  0.55016400  1
  C  C4  1  0.41344700  0.25120400  0.26615800  1
  C  C5  1  0.91345900  0.75113300  0.26616400  1
  C  C6  1  0.16345800  0.50114200  0.76626100  1
  C  C7  1  0.66351700  0.00120200  0.76628500  1
  C  C8  1  0.13306200  0.50483500  0.11755200  1
  C  C9  1  0.63311500  0.00487500  0.11758800  1
  C  C10  1  0.88292700  0.75472600  0.61754300  1
  C  C11  1  0.38287200  0.25476600  0.61757400  1
  C  C12  1  0.77720600  0.25776900  0.14198200  1
  C  C13  1  0.27720800  0.75773000  0.14197100  1
  C  C14  1  0.52732000  0.50769900  0.64204800  1
  C  C15  1  0.02730000  0.00773200  0.64203200  1
  C  C16  1  0.45431100  0.50568600  0.34301000  1
  C  C17  1  0.95433600  0.00572200  0.34303800  1
  C  C18  1  0.20429300  0.75567600  0.84297100  1
  C  C19  1  0.70428800  0.25573700  0.84295100  1
  C  C20  1  0.10575900  0.23659300  0.38560800  1
  C  C21  1  0.60573300  0.73653800  0.38556600  1
  C  C22  1  0.85589400  0.48662100  0.88559400  1
  C  C23  1  0.35585200  0.98664200  0.88560400  1
  C  C24  1  0.85084100  0.51185700  0.23052400  1
  C  C25  1  0.35079600  0.01188300  0.23052800  1
  C  C26  1  0.60066200  0.76183400  0.73039800  1
  C  C27  1  0.10069500  0.26188400  0.73042900  1
  C  C28  1  0.16725900  0.48121000  0.44969800  1
  C  C29  1  0.66724400  0.98120500  0.44970100  1
  C  C30  1  0.91724500  0.73122500  0.94966900  1
  C  C31  1  0.41719300  0.23126700  0.94966600  1
  C  C32  1  0.97201900  0.98737600  0.01928300  1
  C  C33  1  0.22150000  0.73736500  0.51918100  1
  C  C34  1  0.47199000  0.48736300  0.01921400  1
  C  C35  1  0.72154300  0.23752000  0.51930100  1
  Ni  Ni36  1  0.39488100  0.36814300  0.13206600  1
  Ni  Ni37  1  0.89493100  0.86826300  0.13198000  1
  Ni  Ni38  1  0.14480200  0.61819100  0.63195300  1
  Ni  Ni39  1  0.64486600  0.11807000  0.63202100  1
  Ni  Ni40  1  0.10131200  0.14014800  0.17555600  1
  Ni  Ni41  1  0.60145500  0.64032700  0.17572300  1
  Ni  Ni42  1  0.85126700  0.39025300  0.67562000  1
  Ni  Ni43  1  0.35124900  0.89014900  0.67560200  1
  Ni  Ni44  1  0.84529900  0.39320800  0.03461700  1
  Ni  Ni45  1  0.34513400  0.89327000  0.03457900  1
  Ni  Ni46  1  0.59533900  0.64316900  0.53459300  1
  Ni  Ni47  1  0.09540200  0.14311400  0.53455000  1
  Ni  Ni48  1  0.40512500  0.34501800  0.46912400  1
  Ni  Ni49  1  0.90528000  0.84491900  0.46915500  1
  Ni  Ni50  1  0.15513500  0.59512900  0.96917700  1
  Ni  Ni51  1  0.65535400  0.09498000  0.96920200  1
  Ni  Ni52  1  0.14771700  0.61145600  0.32421600  1
  Ni  Ni53  1  0.64764800  0.11132800  0.32405300  1
  Ni  Ni54  1  0.89781400  0.86144600  0.82410300  1
  Ni  Ni55  1  0.39775200  0.36135400  0.82399000  1
  Cu  Cu56  1  0.88521700  0.39286600  0.36060700  1
  Cu  Cu57  1  0.38513700  0.89282100  0.36058700  1
  Cu  Cu58  1  0.63513800  0.64293900  0.86058300  1
  Cu  Cu59  1  0.13515300  0.14288600  0.86061400  1
