# generated using pymatgen
data_Cu3Ni9C2
_symmetry_space_group_name_H-M   'P 1'
_cell_length_a   7.40002847
_cell_length_b   7.40002847
_cell_length_c   9.45714600
_cell_angle_alpha   90.00000000
_cell_angle_beta   90.00000000
_cell_angle_gamma   119.70860002
_symmetry_Int_Tables_number   1
_chemical_formula_structural   Cu3Ni9C2
_chemical_formula_sum   'Cu6 Ni18 C4'
_cell_volume   449.80602457
_cell_formula_units_Z   2
loop_
 _symmetry_equiv_pos_site_id
 _symmetry_equiv_pos_as_xyz
  1  'x, y, z'
loop_
 _atom_site_type_symbol
 _atom_site_label
 _atom_site_symmetry_multiplicity
 _atom_site_fract_x
 _atom_site_fract_y
 _atom_site_fract_z
 _atom_site_occupancy
  C  C0  1  0.00306700  0.33142400  0.25000000  1
  C  C1  1  0.99693300  0.66857600  0.75000000  1
  C  C2  1  0.66857600  0.99693300  0.75000000  1
  C  C3  1  0.33142400  0.00306700  0.25000000  1
  Ni  Ni4  1  0.66328100  0.45016700  0.25000000  1
  Ni  Ni5  1  0.33671900  0.54983300  0.75000000  1
  Ni  Ni6  1  0.54983300  0.33671900  0.75000000  1
  Ni  Ni7  1  0.45016700  0.66328100  0.25000000  1
  Ni  Ni8  1  0.12199100  0.12199100  0.75000000  1
  Ni  Ni9  1  0.87800900  0.87800900  0.25000000  1
  Ni  Ni10  1  0.66585000  0.66585000  0.55704000  1
  Ni  Ni11  1  0.33415000  0.33415000  0.05704000  1
  Ni  Ni12  1  0.33415000  0.33415000  0.44296000  1
  Ni  Ni13  1  0.66585000  0.66585000  0.94296000  1
  Ni  Ni14  1  0.00093300  0.33434400  0.57220000  1
  Ni  Ni15  1  0.99906700  0.66565600  0.07220000  1
  Ni  Ni16  1  0.66565600  0.99906700  0.42780000  1
  Ni  Ni17  1  0.33434400  0.00093300  0.92780000  1
  Ni  Ni18  1  0.99906700  0.66565600  0.42780000  1
  Ni  Ni19  1  0.00093300  0.33434400  0.92780000  1
  Ni  Ni20  1  0.33434400  0.00093300  0.57220000  1
  Ni  Ni21  1  0.66565600  0.99906700  0.07220000  1
  Cu  Cu22  1  0.00000000  0.00000000  0.50000000  1
  Cu  Cu23  1  0.00000000  0.00000000  0.00000000  1
  Cu  Cu24  1  0.67106600  0.32893400  0.50000000  1
  Cu  Cu25  1  0.32893400  0.67106600  0.00000000  1
  Cu  Cu26  1  0.32893400  0.67106600  0.50000000  1
  Cu  Cu27  1  0.67106600  0.32893400  0.00000000  1
