# generated using pymatgen
data_Cu2NiC12
_symmetry_space_group_name_H-M   'P 1'
_cell_length_a   6.66612900
_cell_length_b   11.62664200
_cell_length_c   13.68003000
_cell_angle_alpha   90.00000000
_cell_angle_beta   90.00000000
_cell_angle_gamma   90.00000000
_symmetry_Int_Tables_number   1
_chemical_formula_structural   Cu2NiC12
_chemical_formula_sum   'Cu8 Ni4 C48'
_cell_volume   1060.26655833
_cell_formula_units_Z   4
loop_
 _symmetry_equiv_pos_site_id
 _symmetry_equiv_pos_as_xyz
  1  'x, y, z'
loop_
 _atom_site_type_symbol
 _atom_site_label
 _atom_site_symmetry_multiplicity
 _atom_site_fract_x
 _atom_site_fract_y
 _atom_site_fract_z
 _atom_site_occupancy
  Ni  Ni0  1  0.81009500  0.24094100  0.50323700  1
  Ni  Ni1  1  0.18990500  0.74094100  0.49676300  1
  Ni  Ni2  1  0.81009500  0.74094100  0.99676300  1
  Ni  Ni3  1  0.18990500  0.24094100  0.00323700  1
  Cu  Cu4  1  0.65876700  0.58357500  0.54343600  1
  Cu  Cu5  1  0.34123300  0.08357500  0.45656400  1
  Cu  Cu6  1  0.65876700  0.08357500  0.95656400  1
  Cu  Cu7  1  0.34123300  0.58357500  0.04343600  1
  Cu  Cu8  1  0.33549600  0.39900600  0.45759400  1
  Cu  Cu9  1  0.66450400  0.89900600  0.54240600  1
  Cu  Cu10  1  0.33549600  0.89900600  0.04240600  1
  Cu  Cu11  1  0.66450400  0.39900600  0.95759400  1
  C  C12  1  0.79894800  0.24217200  0.63421000  1
  C  C13  1  0.20105200  0.74217200  0.36579000  1
  C  C14  1  0.79894800  0.74217200  0.86579000  1
  C  C15  1  0.20105200  0.24217200  0.13421000  1
  C  C16  1  0.81880900  0.24047200  0.37214900  1
  C  C17  1  0.18119100  0.74047200  0.62785100  1
  C  C18  1  0.81880900  0.74047200  0.12785100  1
  C  C19  1  0.18119100  0.24047200  0.87214900  1
  C  C20  1  0.67183100  0.58014500  0.66755700  1
  C  C21  1  0.32816900  0.08014500  0.33244300  1
  C  C22  1  0.67183100  0.08014500  0.83244300  1
  C  C23  1  0.32816900  0.58014500  0.16755700  1
  C  C24  1  0.81918700  0.53034200  0.30230100  1
  C  C25  1  0.18081300  0.03034200  0.69769900  1
  C  C26  1  0.81918700  0.03034200  0.19769900  1
  C  C27  1  0.18081300  0.53034200  0.80230100  1
  C  C28  1  0.25557000  0.40695600  0.68629300  1
  C  C29  1  0.74443000  0.90695600  0.31370700  1
  C  C30  1  0.25557000  0.90695600  0.81370700  1
  C  C31  1  0.74443000  0.40695600  0.18629300  1
  C  C32  1  0.32096400  0.40456800  0.33364400  1
  C  C33  1  0.67903600  0.90456800  0.66635600  1
  C  C34  1  0.32096400  0.90456800  0.16635600  1
  C  C35  1  0.67903600  0.40456800  0.83364400  1
  C  C36  1  0.90406800  0.61769500  0.50078100  1
  C  C37  1  0.09593200  0.11769500  0.49921900  1
  C  C38  1  0.90406800  0.11769500  0.99921900  1
  C  C39  1  0.09593200  0.61769500  0.00078100  1
  C  C40  1  0.64164200  0.42506100  0.50210400  1
  C  C41  1  0.35835800  0.92506100  0.49789600  1
  C  C42  1  0.64164200  0.92506100  0.99789600  1
  C  C43  1  0.35835800  0.42506100  0.00210400  1
  C  C44  1  0.35200600  0.55809500  0.50110500  1
  C  C45  1  0.64799400  0.05809500  0.49889500  1
  C  C46  1  0.35200600  0.05809500  0.99889500  1
  C  C47  1  0.64799400  0.55809500  0.00110500  1
  C  C48  1  0.44023200  0.24175700  0.48387800  1
  C  C49  1  0.55976800  0.74175700  0.51612200  1
  C  C50  1  0.44023200  0.74175700  0.01612200  1
  C  C51  1  0.55976800  0.24175700  0.98387800  1
  C  C52  1  0.08649100  0.36598900  0.49543200  1
  C  C53  1  0.91350900  0.86598900  0.50456800  1
  C  C54  1  0.08649100  0.86598900  0.00456800  1
  C  C55  1  0.91350900  0.36598900  0.99543200  1
  C  C56  1  0.12928800  0.47822800  0.72362400  1
  C  C57  1  0.87071200  0.97822800  0.27637600  1
  C  C58  1  0.12928800  0.97822800  0.77637600  1
  C  C59  1  0.87071200  0.47822800  0.22362400  1
