# generated using pymatgen
data_Cu3NiC
_symmetry_space_group_name_H-M   'P 1'
_cell_length_a   7.12569400
_cell_length_b   7.15846103
_cell_length_c   7.15846103
_cell_angle_alpha   100.49767170
_cell_angle_beta   119.84869651
_cell_angle_gamma   60.15130349
_symmetry_Int_Tables_number   1
_chemical_formula_structural   Cu3NiC
_chemical_formula_sum   'Cu6 Ni2 C2'
_cell_volume   273.64940426
_cell_formula_units_Z   2
loop_
 _symmetry_equiv_pos_site_id
 _symmetry_equiv_pos_as_xyz
  1  'x, y, z'
loop_
 _atom_site_type_symbol
 _atom_site_label
 _atom_site_symmetry_multiplicity
 _atom_site_fract_x
 _atom_site_fract_y
 _atom_site_fract_z
 _atom_site_occupancy
  C  C0  1  0.74985400  0.25014600  0.74985400  1
  C  C1  1  0.25014600  0.74985400  0.25014600  1
  Ni  Ni2  1  0.00000000  0.33791900  0.33791900  1
  Ni  Ni3  1  0.00000000  0.66208100  0.66208100  1
  Cu  Cu4  1  0.76337000  0.22325800  0.22325800  1
  Cu  Cu5  1  0.76337000  0.77674200  0.77674200  1
  Cu  Cu6  1  0.18625100  0.31374900  0.68625100  1
  Cu  Cu7  1  0.81374900  0.68625100  0.31374900  1
  Cu  Cu8  1  0.23663000  0.77674200  0.77674200  1
  Cu  Cu9  1  0.23663000  0.22325800  0.22325800  1
