# generated using pymatgen
data_Cu16Ni9C70
_symmetry_space_group_name_H-M   'P 1'
_cell_length_a   11.49156540
_cell_length_b   10.25821441
_cell_length_c   13.50328714
_cell_angle_alpha   69.98241024
_cell_angle_beta   117.20147075
_cell_angle_gamma   103.10821770
_symmetry_Int_Tables_number   1
_chemical_formula_structural   Cu16Ni9C70
_chemical_formula_sum   'Cu16 Ni9 C70'
_cell_volume   1325.51396546
_cell_formula_units_Z   1
loop_
 _symmetry_equiv_pos_site_id
 _symmetry_equiv_pos_as_xyz
  1  'x, y, z'
loop_
 _atom_site_type_symbol
 _atom_site_label
 _atom_site_symmetry_multiplicity
 _atom_site_fract_x
 _atom_site_fract_y
 _atom_site_fract_z
 _atom_site_occupancy
  C  C0  1  0.02293904  0.17191618  0.87505313  1
  C  C1  1  0.20607359  0.93705822  0.63543162  1
  C  C2  1  0.38280551  0.04406241  0.91207952  1
  C  C3  1  0.20789495  0.43263787  0.13458527  1
  C  C4  1  0.37853271  0.54395960  0.41252439  1
  C  C5  1  0.46550306  0.34769703  0.82590166  1
  C  C6  1  0.45863032  0.84834725  0.32298444  1
  C  C7  1  0.54136968  0.15165275  0.67701556  1
  C  C8  1  0.53449694  0.65230297  0.17409834  1
  C  C9  1  0.62146729  0.45604040  0.58747561  1
  C  C10  1  0.79210505  0.56736213  0.86541473  1
  C  C11  1  0.61719449  0.95593759  0.08792048  1
  C  C12  1  0.79392641  0.06294178  0.36456838  1
  C  C13  1  0.97706096  0.82808382  0.12494687  1
  Ni  Ni14  1  0.18716907  0.69104327  0.89876229  1
  Ni  Ni15  1  0.00000000  0.50000000  0.50000000  1
  Ni  Ni16  1  0.28376595  0.57660621  0.72459439  1
  Ni  Ni17  1  0.19617678  0.17595861  0.40220694  1
  Ni  Ni18  1  0.75555723  0.94551534  0.80080228  1
  Ni  Ni19  1  0.24444277  0.05448466  0.19919772  1
  Ni  Ni20  1  0.80382322  0.82404139  0.59779306  1
  Ni  Ni21  1  0.71623405  0.42339379  0.27540561  1
  Ni  Ni22  1  0.81283093  0.30895673  0.10123771  1
  Cu  Cu23  1  0.08116894  0.99594838  0.77621546  1
  Cu  Cu24  1  0.30808993  0.34147970  0.98812023  1
  Cu  Cu25  1  0.07801991  0.47721944  0.27196944  1
  Cu  Cu26  1  0.48536208  0.85723543  0.85688636  1
  Cu  Cu27  1  0.22535404  0.22607942  0.66568153  1
  Cu  Cu28  1  0.29864326  0.83207257  0.48787869  1
  Cu  Cu29  1  0.21003793  0.72489091  0.16471400  1
  Cu  Cu30  1  0.52227513  0.65184258  0.64240546  1
  Cu  Cu31  1  0.47772487  0.34815742  0.35759454  1
  Cu  Cu32  1  0.78996207  0.27510909  0.83528600  1
  Cu  Cu33  1  0.70135674  0.16792743  0.51212131  1
  Cu  Cu34  1  0.77464596  0.77392058  0.33431847  1
  Cu  Cu35  1  0.51463792  0.14276457  0.14311364  1
  Cu  Cu36  1  0.92198009  0.52278056  0.72803056  1
  Cu  Cu37  1  0.69191007  0.65852030  0.01187977  1
  Cu  Cu38  1  0.91883106  0.00405162  0.22378454  1
  C  C39  1  0.95733495  0.59820430  0.82181708  1
  C  C40  1  0.20883279  0.93896979  0.87736212  1
  C  C41  1  0.03271707  0.53683899  0.69108495  1
  C  C42  1  0.11534540  0.15778697  0.71708222  1
  C  C43  1  0.34523719  0.82325079  0.77252568  1
  C  C44  1  0.48941622  0.87839030  0.96503425  1
  C  C45  1  0.20221588  0.70230828  0.49152257  1
  C  C46  1  0.26470817  0.94825154  0.51658591  1
  C  C47  1  0.35640656  0.40006843  0.88959028  1
  C  C48  1  0.19927976  0.37996391  0.61723783  1
  C  C49  1  0.09590373  0.64430801  0.21122376  1
  C  C50  1  0.96707856  0.08679057  0.31455259  1
  C  C51  1  0.19456619  0.14864754  0.57483606  1
  C  C52  1  0.32828742  0.88897075  0.37926109  1
  C  C53  1  0.20931490  0.43617839  0.37274441  1
  C  C54  1  0.16682500  0.87316763  0.11860658  1
  C  C55  1  0.55899128  0.97859103  0.79633961  1
  C  C56  1  0.56109628  0.71900276  0.89614517  1
  C  C57  1  0.36174298  0.19661159  0.76411072  1
  C  C58  1  0.02039555  0.99102203  0.18553201  1
  C  C59  1  0.18899710  0.65727144  0.07080268  1
  C  C60  1  0.44155234  0.78815211  0.59745403  1
  C  C61  1  0.45600759  0.53184246  0.71283816  1
  C  C62  1  0.34547619  0.70007856  0.26343304  1
  C  C63  1  0.72578535  0.54352827  0.98266965  1
  C  C64  1  0.79872583  0.77843653  0.02892304  1
  C  C65  1  0.33797094  0.31028923  0.27772554  1
  C  C66  1  0.48889850  0.38001984  0.46423072  1
  C  C67  1  0.51110150  0.61998016  0.53576928  1
  C  C68  1  0.66202906  0.68971077  0.72227446  1
  C  C69  1  0.20127417  0.22156347  0.97107696  1
  C  C70  1  0.27421465  0.45647173  0.01733035  1
  C  C71  1  0.65452381  0.29992144  0.73656696  1
  C  C72  1  0.54399241  0.46815754  0.28716184  1
  C  C73  1  0.55844766  0.21184789  0.40254597  1
  C  C74  1  0.81100290  0.34272856  0.92919732  1
  C  C75  1  0.97960445  0.00897797  0.81446799  1
  C  C76  1  0.63825702  0.80338841  0.23588928  1
  C  C77  1  0.43890372  0.28099724  0.10385483  1
  C  C78  1  0.44100872  0.02140897  0.20366039  1
  C  C79  1  0.83317500  0.12683237  0.88139342  1
  C  C80  1  0.79068510  0.56382161  0.62725559  1
  C  C81  1  0.67171258  0.11102925  0.62073891  1
  C  C82  1  0.80543381  0.85135246  0.42516394  1
  C  C83  1  0.03292144  0.91320943  0.68544741  1
  C  C84  1  0.90409627  0.35569199  0.78877624  1
  C  C85  1  0.80072024  0.62003609  0.38276217  1
  C  C86  1  0.64359344  0.59993157  0.11040972  1
  C  C87  1  0.73529183  0.05174846  0.48341409  1
  C  C88  1  0.79778412  0.29769172  0.50847743  1
  C  C89  1  0.51058378  0.12160970  0.03496575  1
  C  C90  1  0.65476281  0.17674921  0.22747432  1
  C  C91  1  0.88465460  0.84221303  0.28291778  1
  C  C92  1  0.96728293  0.46316101  0.30891505  1
  C  C93  1  0.79116721  0.06103021  0.12263788  1
  C  C94  1  0.04266505  0.40179570  0.17818292  1
