# generated using pymatgen
data_Cu5Ni2C7
_symmetry_space_group_name_H-M   'P 1'
_cell_length_a   11.50020500
_cell_length_b   8.36241700
_cell_length_c   13.37209637
_cell_angle_alpha   88.66579118
_cell_angle_beta   90.00000000
_cell_angle_gamma   90.00000000
_symmetry_Int_Tables_number   1
_chemical_formula_structural   Cu5Ni2C7
_chemical_formula_sum   'Cu40 Ni16 C56'
_cell_volume   1285.63930279
_cell_formula_units_Z   8
loop_
 _symmetry_equiv_pos_site_id
 _symmetry_equiv_pos_as_xyz
  1  'x, y, z'
loop_
 _atom_site_type_symbol
 _atom_site_label
 _atom_site_symmetry_multiplicity
 _atom_site_fract_x
 _atom_site_fract_y
 _atom_site_fract_z
 _atom_site_occupancy
  C  C0  1  0.56298500  0.73384900  0.97832200  1
  C  C1  1  0.06298500  0.26615100  0.52167800  1
  C  C2  1  0.43701500  0.26615100  0.02167800  1
  C  C3  1  0.93701500  0.73384900  0.47832200  1
  C  C4  1  0.07911200  0.54288300  0.85999000  1
  C  C5  1  0.57911200  0.45711700  0.64001000  1
  C  C6  1  0.92088800  0.45711700  0.14001000  1
  C  C7  1  0.42088800  0.54288300  0.35999000  1
  Ni  Ni8  1  0.37780800  0.12815500  0.57689400  1
  Ni  Ni9  1  0.87780800  0.87184500  0.92310600  1
  Ni  Ni10  1  0.62219200  0.87184500  0.42310600  1
  Ni  Ni11  1  0.12219200  0.12815500  0.07689400  1
  Ni  Ni12  1  0.15674600  0.89618100  0.69561400  1
  Ni  Ni13  1  0.65674600  0.10381900  0.80438600  1
  Ni  Ni14  1  0.84325400  0.10381900  0.30438600  1
  Ni  Ni15  1  0.34325400  0.89618100  0.19561400  1
  Ni  Ni16  1  0.37154300  0.89386700  0.69728600  1
  Ni  Ni17  1  0.87154300  0.10613300  0.80271400  1
  Ni  Ni18  1  0.62845700  0.10613300  0.30271400  1
  Ni  Ni19  1  0.12845700  0.89386700  0.19728600  1
  Ni  Ni20  1  0.26990400  0.14062200  0.73686800  1
  Ni  Ni21  1  0.76990400  0.85937800  0.76313200  1
  Ni  Ni22  1  0.73009600  0.85937800  0.26313200  1
  Ni  Ni23  1  0.23009600  0.14062200  0.23686800  1
  Cu  Cu24  1  0.52922800  0.83142200  0.74544600  1
  Cu  Cu25  1  0.02922800  0.16857800  0.75455400  1
  Cu  Cu26  1  0.47077200  0.16857800  0.25455400  1
  Cu  Cu27  1  0.97077200  0.83142200  0.24544600  1
  Cu  Cu28  1  0.47747800  0.13723200  0.45573500  1
  Cu  Cu29  1  0.97747800  0.86276800  0.04426500  1
  Cu  Cu30  1  0.52252200  0.86276800  0.54426500  1
  Cu  Cu31  1  0.02252200  0.13723200  0.95573500  1
  Cu  Cu32  1  0.20424300  0.22314900  0.86632200  1
  Cu  Cu33  1  0.70424300  0.77685100  0.63367800  1
  Cu  Cu34  1  0.79575700  0.77685100  0.13367800  1
  Cu  Cu35  1  0.29575700  0.22314900  0.36632200  1
  Cu  Cu36  1  0.98334500  0.88119800  0.70591900  1
  Cu  Cu37  1  0.48334500  0.11880200  0.79408100  1
  Cu  Cu38  1  0.01665500  0.11880200  0.29408100  1
  Cu  Cu39  1  0.51665500  0.88119800  0.20591900  1
  Cu  Cu40  1  0.89867500  0.39141100  0.69999700  1
  Cu  Cu41  1  0.39867500  0.60858900  0.80000300  1
  Cu  Cu42  1  0.10132500  0.60858900  0.30000300  1
  Cu  Cu43  1  0.60132500  0.39141100  0.19999700  1
  Cu  Cu44  1  0.84525100  0.56794900  0.67631500  1
  Cu  Cu45  1  0.34525100  0.43205100  0.82368500  1
  Cu  Cu46  1  0.15474900  0.43205100  0.32368500  1
  Cu  Cu47  1  0.65474900  0.56794900  0.17631500  1
  Cu  Cu48  1  0.29238400  0.43466900  0.60887900  1
  Cu  Cu49  1  0.79238400  0.56533100  0.89112100  1
  Cu  Cu50  1  0.70761600  0.56533100  0.39112100  1
  Cu  Cu51  1  0.20761600  0.43466900  0.10887900  1
  Cu  Cu52  1  0.27455200  0.62414800  0.61830400  1
  Cu  Cu53  1  0.77455200  0.37585200  0.88169600  1
  Cu  Cu54  1  0.72544800  0.37585200  0.38169600  1
  Cu  Cu55  1  0.22544800  0.62414800  0.11830400  1
  Cu  Cu56  1  0.77664200  0.15283200  0.51793500  1
  Cu  Cu57  1  0.27664200  0.84716800  0.98206500  1
  Cu  Cu58  1  0.22335800  0.84716800  0.48206500  1
  Cu  Cu59  1  0.72335800  0.15283200  0.01793500  1
  Cu  Cu60  1  0.82867400  0.05001400  0.60914800  1
  Cu  Cu61  1  0.32867400  0.94998600  0.89085200  1
  Cu  Cu62  1  0.17132600  0.94998600  0.39085200  1
  Cu  Cu63  1  0.67132600  0.05001400  0.10914800  1
  C  C64  1  0.41441600  0.20119200  0.48769500  1
  C  C65  1  0.91441600  0.79880800  0.01230500  1
  C  C66  1  0.58558400  0.79880800  0.51230500  1
  C  C67  1  0.08558400  0.20119200  0.98769500  1
  C  C68  1  0.41027100  0.97346100  0.59985100  1
  C  C69  1  0.91027100  0.02653900  0.90014900  1
  C  C70  1  0.58972900  0.02653900  0.40014900  1
  C  C71  1  0.08972900  0.97346100  0.09985100  1
  C  C72  1  0.31257100  0.21929200  0.64145000  1
  C  C73  1  0.81257100  0.78070800  0.85855000  1
  C  C74  1  0.68742900  0.78070800  0.35855000  1
  C  C75  1  0.18742900  0.21929200  0.14145000  1
  C  C76  1  0.05321100  0.81368000  0.69122900  1
  C  C77  1  0.55321100  0.18632000  0.80877100  1
  C  C78  1  0.94678900  0.18632000  0.30877100  1
  C  C79  1  0.44678900  0.81368000  0.19122900  1
  C  C80  1  0.25829700  0.81129300  0.68237300  1
  C  C81  1  0.75829700  0.18870700  0.81762700  1
  C  C82  1  0.74170300  0.18870700  0.31762700  1
  C  C83  1  0.24170300  0.81129300  0.18237300  1
  C  C84  1  0.24966800  0.26575200  0.80958800  1
  C  C85  1  0.74966800  0.73424800  0.69041200  1
  C  C86  1  0.75033200  0.73424800  0.19041200  1
  C  C87  1  0.25033200  0.26575200  0.30958800  1
  C  C88  1  0.15704800  0.05723800  0.71716400  1
  C  C89  1  0.65704800  0.94276200  0.78283600  1
  C  C90  1  0.84295200  0.94276200  0.28283600  1
  C  C91  1  0.34295200  0.05723800  0.21716400  1
  C  C92  1  0.35634100  0.02130800  0.77183500  1
  C  C93  1  0.85634100  0.97869200  0.72816500  1
  C  C94  1  0.64365900  0.97869200  0.22816500  1
  C  C95  1  0.14365900  0.02130800  0.27183500  1
  C  C96  1  0.45653700  0.77482500  0.72882100  1
  C  C97  1  0.95653700  0.22517500  0.77117900  1
  C  C98  1  0.54346300  0.22517500  0.27117900  1
  C  C99  1  0.04346300  0.77482500  0.22882100  1
  C  C100  1  0.89119100  0.47895600  0.64915400  1
  C  C101  1  0.39119100  0.52104400  0.85084600  1
  C  C102  1  0.10880900  0.52104400  0.35084600  1
  C  C103  1  0.60880900  0.47895600  0.14915400  1
  C  C104  1  0.28657400  0.53676300  0.57076700  1
  C  C105  1  0.78657400  0.46323700  0.92923300  1
  C  C106  1  0.71342600  0.46323700  0.42923300  1
  C  C107  1  0.21342600  0.53676300  0.07076700  1
  C  C108  1  0.83173400  0.06857400  0.53492300  1
  C  C109  1  0.33173400  0.93142600  0.96507700  1
  C  C110  1  0.16826600  0.93142600  0.46507700  1
  C  C111  1  0.66826600  0.06857400  0.03492300  1
