# generated using pymatgen
data_Cu6Ni6C41
_symmetry_space_group_name_H-M   'P 1'
_cell_length_a   9.59169321
_cell_length_b   9.59169321
_cell_length_c   9.59169275
_cell_angle_alpha   113.84691733
_cell_angle_beta   113.84691733
_cell_angle_gamma   113.84692016
_symmetry_Int_Tables_number   1
_chemical_formula_structural   Cu6Ni6C41
_chemical_formula_sum   'Cu6 Ni6 C41'
_cell_volume   542.16022317
_cell_formula_units_Z   1
loop_
 _symmetry_equiv_pos_site_id
 _symmetry_equiv_pos_as_xyz
  1  'x, y, z'
loop_
 _atom_site_type_symbol
 _atom_site_label
 _atom_site_symmetry_multiplicity
 _atom_site_fract_x
 _atom_site_fract_y
 _atom_site_fract_z
 _atom_site_occupancy
  C  C0  1  0.21919300  0.21919300  0.21919300  1
  Ni  Ni1  1  0.90640500  0.57286000  0.34926300  1
  Ni  Ni2  1  0.34926300  0.90640500  0.57286000  1
  Ni  Ni3  1  0.57286000  0.34926300  0.90640500  1
  Ni  Ni4  1  0.34926300  0.57286000  0.90640500  1
  Ni  Ni5  1  0.90640500  0.34926300  0.57286000  1
  Ni  Ni6  1  0.57286000  0.90640500  0.34926300  1
  C  C7  1  0.57669300  0.74364800  0.57669300  1
  C  C8  1  0.57669300  0.57669300  0.74364800  1
  C  C9  1  0.74364800  0.57669300  0.57669300  1
  Cu  Cu10  1  0.18773500  0.99407200  0.80532200  1
  Cu  Cu11  1  0.80532200  0.18773500  0.99407200  1
  Cu  Cu12  1  0.99407200  0.80532200  0.18773500  1
  Cu  Cu13  1  0.80532200  0.99407200  0.18773500  1
  Cu  Cu14  1  0.18773500  0.80532200  0.99407200  1
  Cu  Cu15  1  0.99407200  0.18773500  0.80532200  1
  C  C16  1  0.56019300  0.22657500  0.56019300  1
  C  C17  1  0.56019300  0.56019300  0.22657500  1
  C  C18  1  0.22657500  0.56019300  0.56019300  1
  C  C19  1  0.24506600  0.64283400  0.24506600  1
  C  C20  1  0.24506600  0.24506600  0.64283400  1
  C  C21  1  0.64283400  0.24506600  0.24506600  1
  C  C22  1  0.52830400  0.34208700  0.52830300  1
  C  C23  1  0.52830400  0.52830400  0.34208700  1
  C  C24  1  0.34208700  0.52830400  0.52830400  1
  C  C25  1  0.37559400  0.78193400  0.37559400  1
  C  C26  1  0.37559400  0.37559400  0.78193400  1
  C  C27  1  0.78193400  0.37559400  0.37559400  1
  C  C28  1  0.16021300  0.88070500  0.16021300  1
  C  C29  1  0.16021300  0.16021300  0.88070500  1
  C  C30  1  0.88070500  0.16021300  0.16021300  1
  C  C31  1  0.99316900  0.27316600  0.99316900  1
  C  C32  1  0.99316900  0.99316900  0.27316600  1
  C  C33  1  0.27316600  0.99316900  0.99316900  1
  C  C34  1  0.96922000  0.76545100  0.58535600  1
  C  C35  1  0.58535600  0.96922000  0.76545100  1
  C  C36  1  0.76545100  0.58535600  0.96922000  1
  C  C37  1  0.58535600  0.76545100  0.96922000  1
  C  C38  1  0.96922000  0.58535600  0.76545100  1
  C  C39  1  0.76545100  0.96922000  0.58535600  1
  C  C40  1  0.36417800  0.07873600  0.79300600  1
  C  C41  1  0.79300600  0.36417800  0.07873600  1
  C  C42  1  0.07873600  0.79300600  0.36417800  1
  C  C43  1  0.79300600  0.07873600  0.36417800  1
  C  C44  1  0.36417800  0.79300600  0.07873600  1
  C  C45  1  0.07873600  0.36417800  0.79300600  1
  C  C46  1  0.65184200  0.50260600  0.16836900  1
  C  C47  1  0.16836900  0.65184200  0.50260600  1
  C  C48  1  0.50260600  0.16836900  0.65184200  1
  C  C49  1  0.16836900  0.50260600  0.65184200  1
  C  C50  1  0.65184200  0.16836900  0.50260600  1
  C  C51  1  0.50260600  0.65184200  0.16836900  1
  C  C52  1  0.84942200  0.84942200  0.84942200  1
