# generated using pymatgen
data_Cu9(NiC8)2
_symmetry_space_group_name_H-M   'P 1'
_cell_length_a   5.62939700
_cell_length_b   9.06396200
_cell_length_c   10.16317800
_cell_angle_alpha   90.00000000
_cell_angle_beta   90.00000000
_cell_angle_gamma   90.00000000
_symmetry_Int_Tables_number   1
_chemical_formula_structural   Cu9(NiC8)2
_chemical_formula_sum   'Cu18 Ni4 C32'
_cell_volume   518.57250370
_cell_formula_units_Z   2
loop_
 _symmetry_equiv_pos_site_id
 _symmetry_equiv_pos_as_xyz
  1  'x, y, z'
loop_
 _atom_site_type_symbol
 _atom_site_label
 _atom_site_symmetry_multiplicity
 _atom_site_fract_x
 _atom_site_fract_y
 _atom_site_fract_z
 _atom_site_occupancy
  C  C0  1  0.12801200  0.00000000  0.00000000  1
  C  C1  1  0.12801200  0.50000000  0.50000000  1
  C  C2  1  0.05152200  0.15185300  0.60420000  1
  C  C3  1  0.05152200  0.34814700  0.10420000  1
  C  C4  1  0.05152200  0.65185300  0.89580000  1
  C  C5  1  0.05152200  0.84814700  0.39580000  1
  Ni  Ni6  1  0.78507700  0.14932900  0.31964500  1
  Ni  Ni7  1  0.78507700  0.35067100  0.81964500  1
  Ni  Ni8  1  0.78507700  0.64932900  0.18035500  1
  Ni  Ni9  1  0.78507700  0.85067100  0.68035500  1
  Cu  Cu10  1  0.38355600  0.00000000  0.50000000  1
  Cu  Cu11  1  0.35983400  0.98030200  0.75123200  1
  Cu  Cu12  1  0.39318000  0.14997100  0.78868300  1
  Cu  Cu13  1  0.43844900  0.19342900  0.13118500  1
  Cu  Cu14  1  0.43994700  0.24238800  0.97775500  1
  Cu  Cu15  1  0.43994700  0.25761200  0.47775500  1
  Cu  Cu16  1  0.43844900  0.30657100  0.63118500  1
  Cu  Cu17  1  0.39318000  0.35002900  0.28868300  1
  Cu  Cu18  1  0.35983400  0.51969800  0.25123200  1
  Cu  Cu19  1  0.38355600  0.50000000  0.00000000  1
  Cu  Cu20  1  0.35983400  0.48030200  0.74876800  1
  Cu  Cu21  1  0.39318000  0.64997100  0.71131700  1
  Cu  Cu22  1  0.43844900  0.69342900  0.36881500  1
  Cu  Cu23  1  0.43994700  0.74238800  0.52224500  1
  Cu  Cu24  1  0.43994700  0.75761200  0.02224500  1
  Cu  Cu25  1  0.43844900  0.80657100  0.86881500  1
  Cu  Cu26  1  0.39318000  0.85002900  0.21131700  1
  Cu  Cu27  1  0.35983400  0.01969800  0.24876800  1
  C  C28  1  0.20933300  0.00000000  0.50000000  1
  C  C29  1  0.79460600  0.02058600  0.65534400  1
  C  C30  1  0.27183700  0.06983000  0.78094000  1
  C  C31  1  0.52231900  0.18286900  0.28154300  1
  C  C32  1  0.95261000  0.17980400  0.20003800  1
  C  C33  1  0.85498700  0.23912500  0.44128200  1
  C  C34  1  0.33602600  0.20538000  0.04884000  1
  C  C35  1  0.33602600  0.29462000  0.54884000  1
  C  C36  1  0.85498700  0.26087500  0.94128200  1
  C  C37  1  0.95261000  0.32019600  0.70003800  1
  C  C38  1  0.52231900  0.31713100  0.78154300  1
  C  C39  1  0.27183700  0.43017000  0.28094000  1
  C  C40  1  0.79460600  0.47941400  0.15534400  1
  C  C41  1  0.20933300  0.50000000  0.00000000  1
  C  C42  1  0.79460600  0.52058600  0.84465600  1
  C  C43  1  0.27183700  0.56983000  0.71906000  1
  C  C44  1  0.52231900  0.68286900  0.21845700  1
  C  C45  1  0.95261000  0.67980400  0.29996200  1
  C  C46  1  0.85498700  0.73912500  0.05871800  1
  C  C47  1  0.33602600  0.70538000  0.45116000  1
  C  C48  1  0.33602600  0.79462000  0.95116000  1
  C  C49  1  0.85498700  0.76087500  0.55871800  1
  C  C50  1  0.95261000  0.82019600  0.79996200  1
  C  C51  1  0.52231900  0.81713100  0.71845700  1
  C  C52  1  0.27183700  0.93017000  0.21906000  1
  C  C53  1  0.79460600  0.97941400  0.34465600  1
