# generated using pymatgen
data_CuNiC10
_symmetry_space_group_name_H-M   'P 1'
_cell_length_a   10.06224630
_cell_length_b   10.06224630
_cell_length_c   5.99889900
_cell_angle_alpha   90.00000000
_cell_angle_beta   90.00000000
_cell_angle_gamma   120.00000196
_symmetry_Int_Tables_number   1
_chemical_formula_structural   CuNiC10
_chemical_formula_sum   'Cu2 Ni2 C20'
_cell_volume   526.00764987
_cell_formula_units_Z   2
loop_
 _symmetry_equiv_pos_site_id
 _symmetry_equiv_pos_as_xyz
  1  'x, y, z'
loop_
 _atom_site_type_symbol
 _atom_site_label
 _atom_site_symmetry_multiplicity
 _atom_site_fract_x
 _atom_site_fract_y
 _atom_site_fract_z
 _atom_site_occupancy
  C  C0  1  0.14078100  0.37243800  0.24394500  1
  C  C1  1  0.85921900  0.62756200  0.74394500  1
  C  C2  1  0.62756200  0.76834300  0.24394500  1
  C  C3  1  0.23165700  0.85921900  0.24394500  1
  C  C4  1  0.76834300  0.14078100  0.74394500  1
  C  C5  1  0.37243800  0.23165700  0.74394500  1
  Ni  Ni6  1  0.00000000  0.00000000  0.02157200  1
  Ni  Ni7  1  0.00000000  0.00000000  0.52157200  1
  Cu  Cu8  1  0.33333300  0.66666700  0.66264500  1
  Cu  Cu9  1  0.66666700  0.33333300  0.16264500  1
  C  C10  1  0.33333300  0.66666700  0.03491400  1
  C  C11  1  0.66666700  0.33333300  0.53491400  1
  C  C12  1  0.09229500  0.23850200  0.78875600  1
  C  C13  1  0.90770500  0.76149800  0.28875600  1
  C  C14  1  0.76149800  0.85379300  0.78875600  1
  C  C15  1  0.14620700  0.90770500  0.78875600  1
  C  C16  1  0.85379300  0.09229500  0.28875600  1
  C  C17  1  0.23850200  0.14620700  0.28875600  1
  C  C18  1  0.42083700  0.51976400  0.51649800  1
  C  C19  1  0.57916300  0.48023600  0.01649800  1
  C  C20  1  0.48023600  0.90107300  0.51649800  1
  C  C21  1  0.09892700  0.57916300  0.51649800  1
  C  C22  1  0.90107300  0.42083700  0.01649800  1
  C  C23  1  0.51976400  0.09892700  0.01649800  1
