# generated using pymatgen
data_Cu3NiC4
_symmetry_space_group_name_H-M   'P 1'
_cell_length_a   7.02067884
_cell_length_b   7.02067884
_cell_length_c   7.02067888
_cell_angle_alpha   65.34563334
_cell_angle_beta   65.34563334
_cell_angle_gamma   65.34562583
_symmetry_Int_Tables_number   1
_chemical_formula_structural   Cu3NiC4
_chemical_formula_sum   'Cu6 Ni2 C8'
_cell_volume   273.16978630
_cell_formula_units_Z   2
loop_
 _symmetry_equiv_pos_site_id
 _symmetry_equiv_pos_as_xyz
  1  'x, y, z'
loop_
 _atom_site_type_symbol
 _atom_site_label
 _atom_site_symmetry_multiplicity
 _atom_site_fract_x
 _atom_site_fract_y
 _atom_site_fract_z
 _atom_site_occupancy
  C  C0  1  0.32494800  0.75000000  0.17505200  1
  C  C1  1  0.17505200  0.32494800  0.75000000  1
  C  C2  1  0.75000000  0.17505200  0.32494800  1
  C  C3  1  0.67505200  0.25000000  0.82494800  1
  C  C4  1  0.82494800  0.67505200  0.25000000  1
  C  C5  1  0.25000000  0.82494800  0.67505200  1
  Ni  Ni6  1  0.25000000  0.25000000  0.25000000  1
  Ni  Ni7  1  0.75000000  0.75000000  0.75000000  1
  Cu  Cu8  1  0.92270400  0.75000000  0.57729600  1
  Cu  Cu9  1  0.57729600  0.92270400  0.75000000  1
  Cu  Cu10  1  0.75000000  0.57729600  0.92270400  1
  Cu  Cu11  1  0.07729600  0.25000000  0.42270400  1
  Cu  Cu12  1  0.25000000  0.42270400  0.07729600  1
  Cu  Cu13  1  0.42270400  0.07729600  0.25000000  1
  C  C14  1  0.00000000  0.00000000  0.00000000  1
  C  C15  1  0.50000000  0.50000000  0.50000000  1
