# generated using pymatgen
data_Cu11NiC6
_symmetry_space_group_name_H-M   'P 1'
_cell_length_a   3.27692311
_cell_length_b   13.80577822
_cell_length_c   4.67280825
_cell_angle_alpha   91.61657617
_cell_angle_beta   83.22994044
_cell_angle_gamma   90.78906398
_symmetry_Int_Tables_number   1
_chemical_formula_structural   Cu11NiC6
_chemical_formula_sum   'Cu11 Ni1 C6'
_cell_volume   209.83084741
_cell_formula_units_Z   1
loop_
 _symmetry_equiv_pos_site_id
 _symmetry_equiv_pos_as_xyz
  1  'x, y, z'
loop_
 _atom_site_type_symbol
 _atom_site_label
 _atom_site_symmetry_multiplicity
 _atom_site_fract_x
 _atom_site_fract_y
 _atom_site_fract_z
 _atom_site_occupancy
  C  C0  1  0.99941200  0.00171400  0.00801800  1
  C  C1  1  0.00045200  0.66626000  0.99771100  1
  C  C2  1  0.00198400  0.32791600  0.98331700  1
  C  C3  1  0.50412200  0.49812200  0.49191900  1
  C  C4  1  0.50019100  0.83411600  0.50191800  1
  C  C5  1  0.51820100  0.17715800  0.53415100  1
  Ni  Ni6  1  0.02207400  0.23308800  0.69728000  1
  Cu  Cu7  1  0.02848500  0.56516600  0.69672200  1
  Cu  Cu8  1  0.02392900  0.90148900  0.70657300  1
  Cu  Cu9  1  0.54767200  0.26498400  0.20302300  1
  Cu  Cu10  1  0.53033800  0.59802800  0.20292900  1
  Cu  Cu11  1  0.52923400  0.93255100  0.20546200  1
  Cu  Cu12  1  0.46007600  0.06873200  0.80235200  1
  Cu  Cu13  1  0.45257300  0.39969700  0.78701900  1
  Cu  Cu14  1  0.47174100  0.73423100  0.79537000  1
  Cu  Cu15  1  0.97621400  0.76668700  0.29873200  1
  Cu  Cu16  1  0.96401000  0.10166600  0.30752000  1
  Cu  Cu17  1  0.96929200  0.42839700  0.27998400  1
