# generated using pymatgen
data_Cu2Ni3C23
_symmetry_space_group_name_H-M   'P 1'
_cell_length_a   5.96484568
_cell_length_b   5.96484568
_cell_length_c   9.90704677
_cell_angle_alpha   86.01170638
_cell_angle_beta   86.01170638
_cell_angle_gamma   59.32562467
_symmetry_Int_Tables_number   1
_chemical_formula_structural   Cu2Ni3C23
_chemical_formula_sum   'Cu2 Ni3 C23'
_cell_volume   302.19416497
_cell_formula_units_Z   1
loop_
 _symmetry_equiv_pos_site_id
 _symmetry_equiv_pos_as_xyz
  1  'x, y, z'
loop_
 _atom_site_type_symbol
 _atom_site_label
 _atom_site_symmetry_multiplicity
 _atom_site_fract_x
 _atom_site_fract_y
 _atom_site_fract_z
 _atom_site_occupancy
  C  C0  1  0.32937400  0.32937400  0.08587100  1
  C  C1  1  0.00294400  0.00294400  0.01343900  1
  C  C2  1  0.00102100  0.00102100  0.52028500  1
  C  C3  1  0.65430200  0.65430200  0.59219100  1
  Ni  Ni4  1  0.17177900  0.17177900  0.78341000  1
  Ni  Ni5  1  0.83323000  0.33762300  0.28676100  1
  Ni  Ni6  1  0.33762300  0.83323000  0.28676100  1
  C  C7  1  0.66541500  0.16872500  0.79023900  1
  C  C8  1  0.16872500  0.66541500  0.79023900  1
  C  C9  1  0.83173300  0.83173300  0.28711900  1
  Cu  Cu10  1  0.32903000  0.32903000  0.51569900  1
  Cu  Cu11  1  0.66701100  0.66701100  0.01194000  1
  C  C12  1  0.66319100  0.17814200  0.42021400  1
  C  C13  1  0.46883100  0.46883100  0.64657300  1
  C  C14  1  0.32624400  0.32624400  0.87640300  1
  C  C15  1  0.00762100  0.00762100  0.70745500  1
  C  C16  1  0.00528200  0.00528200  0.20313600  1
  C  C17  1  0.17814200  0.66319100  0.42021400  1
  C  C18  1  0.45231700  0.02408000  0.64825000  1
  C  C19  1  0.02408000  0.45231700  0.64825000  1
  C  C20  1  0.83971400  0.83971400  0.92123500  1
  C  C21  1  0.18036400  0.18036400  0.41174500  1
  C  C22  1  0.95922300  0.50332800  0.14563400  1
  C  C23  1  0.50332800  0.95922300  0.14563400  1
  C  C24  1  0.66113600  0.66113600  0.37964800  1
  C  C25  1  0.85907300  0.35406200  0.90927000  1
  C  C26  1  0.51174400  0.51174400  0.13420600  1
  C  C27  1  0.35406200  0.85907300  0.90927000  1
