# generated using pymatgen
data_Cu19Ni5C12
_symmetry_space_group_name_H-M   'P 1'
_cell_length_a   4.89131500
_cell_length_b   5.85017570
_cell_length_c   15.94796046
_cell_angle_alpha   89.77329806
_cell_angle_beta   89.78663435
_cell_angle_gamma   87.72854279
_symmetry_Int_Tables_number   1
_chemical_formula_structural   Cu19Ni5C12
_chemical_formula_sum   'Cu19 Ni5 C12'
_cell_volume   455.98667277
_cell_formula_units_Z   1
loop_
 _symmetry_equiv_pos_site_id
 _symmetry_equiv_pos_as_xyz
  1  'x, y, z'
loop_
 _atom_site_type_symbol
 _atom_site_label
 _atom_site_symmetry_multiplicity
 _atom_site_fract_x
 _atom_site_fract_y
 _atom_site_fract_z
 _atom_site_occupancy
  C  C0  1  0.98544800  0.85489200  0.41835200  1
  C  C1  1  0.02052400  0.18926800  0.24229000  1
  C  C2  1  0.01229200  0.82538700  0.07965200  1
  C  C3  1  0.98533300  0.85013800  0.75237500  1
  C  C4  1  0.97255700  0.16491300  0.58192000  1
  C  C5  1  0.98669000  0.16779900  0.90972900  1
  C  C6  1  0.50484400  0.64678700  0.58588200  1
  C  C7  1  0.48857500  0.65583800  0.92279300  1
  C  C8  1  0.49316700  0.65500600  0.24978800  1
  C  C9  1  0.47123400  0.35365800  0.08612300  1
  C  C10  1  0.51007900  0.32120800  0.42123500  1
  C  C11  1  0.53062300  0.32807600  0.74582300  1
  Ni  Ni12  1  0.78282300  0.11375700  0.47896400  1
  Ni  Ni13  1  0.77909600  0.11976300  0.80129200  1
  Ni  Ni14  1  0.71580500  0.37293300  0.63990000  1
  Ni  Ni15  1  0.27970100  0.60146000  0.02837700  1
  Ni  Ni16  1  0.29202700  0.40311700  0.19165500  1
  Cu  Cu17  1  0.76425500  0.89067500  0.30197200  1
  Cu  Cu18  1  0.76734800  0.87132600  0.64229800  1
  Cu  Cu19  1  0.77202800  0.88465400  0.97016800  1
  Cu  Cu20  1  0.75626500  0.11956500  0.13271600  1
  Cu  Cu21  1  0.75159800  0.61723500  0.14331500  1
  Cu  Cu22  1  0.74062000  0.39084300  0.31018700  1
  Cu  Cu23  1  0.72862700  0.61372900  0.47125100  1
  Cu  Cu24  1  0.73197400  0.61646100  0.81488600  1
  Cu  Cu25  1  0.71808600  0.37574800  0.98067700  1
  Cu  Cu26  1  0.26444700  0.60972200  0.36530000  1
  Cu  Cu27  1  0.25964800  0.39646200  0.52702800  1
  Cu  Cu28  1  0.29450100  0.37314800  0.85293200  1
  Cu  Cu29  1  0.27143200  0.60880100  0.70276800  1
  Cu  Cu30  1  0.23276800  0.90189300  0.19192200  1
  Cu  Cu31  1  0.23026300  0.89545600  0.53347500  1
  Cu  Cu32  1  0.23668400  0.10491700  0.35878600  1
  Cu  Cu33  1  0.22263900  0.10617700  0.02089900  1
  Cu  Cu34  1  0.23033900  0.88120500  0.85860000  1
  Cu  Cu35  1  0.21566000  0.11799000  0.68466900  1
