# generated using pymatgen
data_Cu2Ni2C3
_symmetry_space_group_name_H-M   'P 1'
_cell_length_a   8.72589346
_cell_length_b   8.72589346
_cell_length_c   7.85704359
_cell_angle_alpha   84.98323439
_cell_angle_beta   84.98323439
_cell_angle_gamma   31.40866693
_symmetry_Int_Tables_number   1
_chemical_formula_structural   Cu2Ni2C3
_chemical_formula_sum   'Cu4 Ni4 C6'
_cell_volume   310.47961795
_cell_formula_units_Z   2
loop_
 _symmetry_equiv_pos_site_id
 _symmetry_equiv_pos_as_xyz
  1  'x, y, z'
loop_
 _atom_site_type_symbol
 _atom_site_label
 _atom_site_symmetry_multiplicity
 _atom_site_fract_x
 _atom_site_fract_y
 _atom_site_fract_z
 _atom_site_occupancy
  C  C0  1  0.13102700  0.86897300  0.75000000  1
  C  C1  1  0.86897300  0.13102700  0.25000000  1
  C  C2  1  0.17856500  0.51102400  0.63516100  1
  C  C3  1  0.48897600  0.82143500  0.86483900  1
  C  C4  1  0.82143500  0.48897600  0.36483900  1
  C  C5  1  0.51102400  0.17856500  0.13516100  1
  Ni  Ni6  1  0.32636500  0.52746200  0.69866000  1
  Ni  Ni7  1  0.47253800  0.67363500  0.80134000  1
  Ni  Ni8  1  0.67363500  0.47253800  0.30134000  1
  Ni  Ni9  1  0.52746200  0.32636500  0.19866000  1
  Cu  Cu10  1  0.85716600  0.78786900  0.61178300  1
  Cu  Cu11  1  0.21213100  0.14283400  0.88821700  1
  Cu  Cu12  1  0.78786900  0.85716600  0.11178300  1
  Cu  Cu13  1  0.14283400  0.21213100  0.38821700  1
