# generated using pymatgen
data_Cu2Ni6C7
_symmetry_space_group_name_H-M   'P 1'
_cell_length_a   17.12381983
_cell_length_b   17.12381983
_cell_length_c   17.12381983
_cell_angle_alpha   101.10584130
_cell_angle_beta   101.10584130
_cell_angle_gamma   127.93419176
_symmetry_Int_Tables_number   1
_chemical_formula_structural   Cu2Ni6C7
_chemical_formula_sum   'Cu16 Ni48 C56'
_cell_volume   3558.45767729
_cell_formula_units_Z   8
loop_
 _symmetry_equiv_pos_site_id
 _symmetry_equiv_pos_as_xyz
  1  'x, y, z'
loop_
 _atom_site_type_symbol
 _atom_site_label
 _atom_site_symmetry_multiplicity
 _atom_site_fract_x
 _atom_site_fract_y
 _atom_site_fract_z
 _atom_site_occupancy
  C  C0  1  0.62500000  0.87500000  0.75000000  1
  C  C1  1  0.62500000  0.37500000  0.25000000  1
  C  C2  1  0.62500000  0.87500000  0.25000000  1
  C  C3  1  0.12500000  0.37500000  0.25000000  1
  C  C4  1  0.12500000  0.37500000  0.75000000  1
  C  C5  1  0.12500000  0.87500000  0.25000000  1
  C  C6  1  0.12500000  0.87500000  0.75000000  1
  C  C7  1  0.62500000  0.37500000  0.75000000  1
  Ni  Ni8  1  0.84187900  0.27110900  0.31945200  1
  Ni  Ni9  1  0.45165700  0.77110900  0.42923000  1
  Ni  Ni10  1  0.02110900  0.09187900  0.81945200  1
  Ni  Ni11  1  0.77242700  0.59187900  0.07077000  1
  Ni  Ni12  1  0.40812100  0.47889100  0.18054800  1
  Ni  Ni13  1  0.79834300  0.97889100  0.07077000  1
  Ni  Ni14  1  0.22889100  0.65812100  0.68054800  1
  Ni  Ni15  1  0.47757300  0.15812100  0.42923000  1
  Ni  Ni16  1  0.34187900  0.02242700  0.57077000  1
  Ni  Ni17  1  0.95165700  0.52242700  0.68054800  1
  Ni  Ni18  1  0.52110900  0.70165700  0.92923000  1
  Ni  Ni19  1  0.27242700  0.20165700  0.18054800  1
  Ni  Ni20  1  0.90812100  0.72757300  0.92923000  1
  Ni  Ni21  1  0.29834300  0.22757300  0.81945200  1
  Ni  Ni22  1  0.72889100  0.04834300  0.57077000  1
  Ni  Ni23  1  0.97757300  0.54834300  0.31945200  1
  Ni  Ni24  1  0.64130300  0.13197200  0.24011900  1
  Ni  Ni25  1  0.39185300  0.63197200  0.49066900  1
  Ni  Ni26  1  0.88197200  0.89130300  0.74011900  1
  Ni  Ni27  1  0.65118500  0.39130300  0.00933100  1
  Ni  Ni28  1  0.60869700  0.61802800  0.25988100  1
  Ni  Ni29  1  0.85814700  0.11802800  0.00933100  1
  Ni  Ni30  1  0.36802800  0.85869700  0.75988100  1
  Ni  Ni31  1  0.59881500  0.35869700  0.49066900  1
  Ni  Ni32  1  0.14130300  0.90118500  0.50933100  1
  Ni  Ni33  1  0.89185300  0.40118500  0.75988100  1
  Ni  Ni34  1  0.38197200  0.64185300  0.99066900  1
  Ni  Ni35  1  0.15118500  0.14185300  0.25988100  1
  Ni  Ni36  1  0.10869700  0.84881500  0.99066900  1
  Ni  Ni37  1  0.35814700  0.34881500  0.74011900  1
  Ni  Ni38  1  0.86802800  0.10814700  0.50933100  1
  Ni  Ni39  1  0.09881500  0.60814700  0.24011900  1
  Ni  Ni40  1  0.93997600  0.34068500  0.35538500  1
  Ni  Ni41  1  0.48530000  0.84068500  0.40070900  1
  Ni  Ni42  1  0.09068500  0.18997600  0.85538500  1
  Ni  Ni43  1  0.83459100  0.68997600  0.09929100  1
  Ni  Ni44  1  0.31002400  0.40931500  0.14461500  1
  Ni  Ni45  1  0.76470000  0.90931500  0.09929100  1
  Ni  Ni46  1  0.15931500  0.56002400  0.64461500  1
  Ni  Ni47  1  0.41540900  0.06002400  0.40070900  1
  Ni  Ni48  1  0.43997600  0.08459100  0.59929100  1
  Ni  Ni49  1  0.98530000  0.58459100  0.64461500  1
  Ni  Ni50  1  0.59068500  0.73530000  0.90070900  1
  Ni  Ni51  1  0.33459100  0.23530000  0.14461500  1
  Ni  Ni52  1  0.81002400  0.66540900  0.90070900  1
  Ni  Ni53  1  0.26470000  0.16540900  0.85538500  1
  Ni  Ni54  1  0.65931500  0.01470000  0.59929100  1
  Ni  Ni55  1  0.91540900  0.51470000  0.35538500  1
  Cu  Cu56  1  0.73731300  0.19897800  0.27977200  1
  Cu  Cu57  1  0.41920600  0.69897800  0.46166500  1
  Cu  Cu58  1  0.94897800  0.98731300  0.77977200  1
  Cu  Cu59  1  0.70754100  0.48731300  0.03833500  1
  Cu  Cu60  1  0.51268700  0.55102200  0.22022800  1
  Cu  Cu61  1  0.83079400  0.05102200  0.03833500  1
  Cu  Cu62  1  0.30102200  0.76268700  0.72022800  1
  Cu  Cu63  1  0.54245900  0.26268700  0.46166500  1
  Cu  Cu64  1  0.23731300  0.95754100  0.53833500  1
  Cu  Cu65  1  0.91920600  0.45754100  0.72022800  1
  Cu  Cu66  1  0.44897800  0.66920600  0.96166500  1
  Cu  Cu67  1  0.20754100  0.16920600  0.22022800  1
  Cu  Cu68  1  0.01268700  0.79245900  0.96166500  1
  Cu  Cu69  1  0.33079400  0.29245900  0.77977200  1
  Cu  Cu70  1  0.80102200  0.08079400  0.53833500  1
  Cu  Cu71  1  0.04245900  0.58079400  0.27977200  1
  C  C72  1  0.57522800  0.93222000  0.85900200  1
  C  C73  1  0.57321800  0.43222000  0.35699200  1
  C  C74  1  0.68222000  0.82522800  0.35900200  1
  C  C75  1  0.96622600  0.32522800  0.14300800  1
  C  C76  1  0.67477200  0.81778000  0.64099800  1
  C  C77  1  0.67678200  0.31778000  0.14300800  1
  C  C78  1  0.56778000  0.92477200  0.14099800  1
  C  C79  1  0.28377400  0.42477200  0.35699200  1
  C  C80  1  0.07522800  0.21622600  0.64300800  1
  C  C81  1  0.07321800  0.71622600  0.14099800  1
  C  C82  1  0.18222000  0.82321800  0.85699200  1
  C  C83  1  0.46622600  0.32321800  0.64099800  1
  C  C84  1  0.17477200  0.53377400  0.85699200  1
  C  C85  1  0.17678200  0.03377400  0.35900200  1
  C  C86  1  0.06778000  0.92678200  0.64300800  1
  C  C87  1  0.78377400  0.42678200  0.85900200  1
  C  C88  1  0.68540800  0.78534600  0.86441900  1
  C  C89  1  0.42092800  0.28534600  0.09993800  1
  C  C90  1  0.53534600  0.93540800  0.36441900  1
  C  C91  1  0.07099000  0.43540800  0.40006200  1
  C  C92  1  0.56459200  0.96465400  0.63558100  1
  C  C93  1  0.82907200  0.46465400  0.40006200  1
  C  C94  1  0.71465400  0.81459200  0.13558100  1
  C  C95  1  0.17901000  0.31459200  0.09993800  1
  C  C96  1  0.18540800  0.32099000  0.90006200  1
  C  C97  1  0.92092800  0.82099000  0.13558100  1
  C  C98  1  0.03534600  0.67092800  0.59993800  1
  C  C99  1  0.57099000  0.17092800  0.63558100  1
  C  C100  1  0.06459200  0.42901000  0.59993800  1
  C  C101  1  0.32907200  0.92901000  0.36441900  1
  C  C102  1  0.21465400  0.07907200  0.90006200  1
  C  C103  1  0.67901000  0.57907200  0.86441900  1
  C  C104  1  0.44719400  0.69364200  0.68069300  1
  C  C105  1  0.51294800  0.19364200  0.24644800  1
  C  C106  1  0.44364200  0.69719400  0.18069300  1
  C  C107  1  0.01650000  0.19719400  0.25355200  1
  C  C108  1  0.80280600  0.05635800  0.81930700  1
  C  C109  1  0.73705200  0.55635800  0.25355200  1
  C  C110  1  0.80635800  0.05280600  0.31930700  1
  C  C111  1  0.23350000  0.55280600  0.24644800  1
  C  C112  1  0.94719400  0.26650000  0.75355200  1
  C  C113  1  0.01294800  0.76650000  0.31930700  1
  C  C114  1  0.94364200  0.76294800  0.74644800  1
  C  C115  1  0.51650000  0.26294800  0.81930700  1
  C  C116  1  0.30280600  0.48350000  0.74644800  1
  C  C117  1  0.23705200  0.98350000  0.18069300  1
  C  C118  1  0.30635800  0.98705200  0.75355200  1
  C  C119  1  0.73350000  0.48705200  0.68069300  1
