# generated using pymatgen
data_Cu3NiC2
_symmetry_space_group_name_H-M   'P 1'
_cell_length_a   5.77472838
_cell_length_b   5.77472838
_cell_length_c   10.72591667
_cell_angle_alpha   68.88025779
_cell_angle_beta   68.88025779
_cell_angle_gamma   65.19590293
_symmetry_Int_Tables_number   1
_chemical_formula_structural   Cu3NiC2
_chemical_formula_sum   'Cu12 Ni4 C8'
_cell_volume   293.49101021
_cell_formula_units_Z   4
loop_
 _symmetry_equiv_pos_site_id
 _symmetry_equiv_pos_as_xyz
  1  'x, y, z'
loop_
 _atom_site_type_symbol
 _atom_site_label
 _atom_site_symmetry_multiplicity
 _atom_site_fract_x
 _atom_site_fract_y
 _atom_site_fract_z
 _atom_site_occupancy
  C  C0  1  0.62116500  0.13229600  0.24992700  1
  C  C1  1  0.37883500  0.86770400  0.75007300  1
  C  C2  1  0.00000000  0.00000000  0.50000000  1
  C  C3  1  0.50000000  0.50000000  0.50000000  1
  C  C4  1  0.76207700  0.76207700  0.01991100  1
  C  C5  1  0.86770400  0.37883500  0.75007300  1
  C  C6  1  0.13229600  0.62116500  0.24992700  1
  C  C7  1  0.23792300  0.23792300  0.98008900  1
  Ni  Ni8  1  0.42073700  0.42073700  0.34019700  1
  Ni  Ni9  1  0.57926300  0.57926300  0.65980300  1
  Ni  Ni10  1  0.83610100  0.83610100  0.16586500  1
  Ni  Ni11  1  0.16389900  0.16389900  0.83413500  1
  Cu  Cu12  1  0.40203900  0.91098200  0.39563600  1
  Cu  Cu13  1  0.32268200  0.32268200  0.14533500  1
  Cu  Cu14  1  0.67731800  0.67731800  0.85466500  1
  Cu  Cu15  1  0.92669500  0.92669500  0.35154800  1
  Cu  Cu16  1  0.34867600  0.84375800  0.10350500  1
  Cu  Cu17  1  0.59796100  0.08901800  0.60436400  1
  Cu  Cu18  1  0.84375800  0.34867600  0.10350500  1
  Cu  Cu19  1  0.15624200  0.65132400  0.89649500  1
  Cu  Cu20  1  0.91098200  0.40203900  0.39563600  1
  Cu  Cu21  1  0.65132400  0.15624200  0.89649500  1
  Cu  Cu22  1  0.07330500  0.07330500  0.64845200  1
  Cu  Cu23  1  0.08901800  0.59796100  0.60436400  1
