# generated using pymatgen
data_Cu4Ni2C13
_symmetry_space_group_name_H-M   'P 1'
_cell_length_a   6.09993900
_cell_length_b   9.01934971
_cell_length_c   7.57495290
_cell_angle_alpha   101.09952600
_cell_angle_beta   66.25852293
_cell_angle_gamma   89.99766576
_symmetry_Int_Tables_number   1
_chemical_formula_structural   Cu4Ni2C13
_chemical_formula_sum   'Cu8 Ni4 C26'
_cell_volume   372.95177848
_cell_formula_units_Z   2
loop_
 _symmetry_equiv_pos_site_id
 _symmetry_equiv_pos_as_xyz
  1  'x, y, z'
loop_
 _atom_site_type_symbol
 _atom_site_label
 _atom_site_symmetry_multiplicity
 _atom_site_fract_x
 _atom_site_fract_y
 _atom_site_fract_z
 _atom_site_occupancy
  C  C0  1  0.49998600  0.50005900  0.00000200  1
  C  C1  1  0.99999300  0.99996000  0.99996400  1
  C  C2  1  0.00006900  0.00013000  0.50003600  1
  C  C3  1  0.50014300  0.99993500  0.49996900  1
  C  C4  1  0.50003000  0.50006800  0.50008500  1
  C  C5  1  0.00041400  0.49972700  0.49969600  1
  Ni  Ni6  1  0.88882000  0.69860400  0.22232900  1
  Ni  Ni7  1  0.38887200  0.19858200  0.22225700  1
  Ni  Ni8  1  0.61114300  0.80140000  0.77768700  1
  Ni  Ni9  1  0.11109200  0.30141600  0.77775500  1
  Cu  Cu10  1  0.89710100  0.35761300  0.20571800  1
  Cu  Cu11  1  0.39712800  0.85759500  0.20570000  1
  Cu  Cu12  1  0.60280800  0.14237900  0.79425200  1
  Cu  Cu13  1  0.10277800  0.64238600  0.79427700  1
  Cu  Cu14  1  0.81722800  0.25871500  0.36547200  1
  Cu  Cu15  1  0.31721300  0.75875500  0.36550100  1
  Cu  Cu16  1  0.68264800  0.24129400  0.63459100  1
  Cu  Cu17  1  0.18267000  0.74123700  0.63454900  1
  C  C18  1  0.99834600  0.70679600  0.00314900  1
  C  C19  1  0.49836100  0.20680600  0.00311300  1
  C  C20  1  0.50156000  0.79323200  0.99688300  1
  C  C21  1  0.00154500  0.29322100  0.99692100  1
  C  C22  1  0.83118700  0.87035800  0.33778100  1
  C  C23  1  0.33119600  0.37030300  0.33776900  1
  C  C24  1  0.66893300  0.62964800  0.66223200  1
  C  C25  1  0.16893200  0.12969900  0.66224000  1
  C  C26  1  0.82007800  0.36619800  0.35987100  1
  C  C27  1  0.32011900  0.86623200  0.35986600  1
  C  C28  1  0.67992000  0.13380000  0.64012000  1
  C  C29  1  0.17987900  0.63375100  0.64012800  1
  C  C30  1  0.07435100  0.61677500  0.27308900  1
  C  C31  1  0.57435400  0.11681100  0.27307800  1
  C  C32  1  0.65258000  0.61673400  0.27314300  1
  C  C33  1  0.15260900  0.11678100  0.27309600  1
  C  C34  1  0.84734000  0.88331000  0.72692900  1
  C  C35  1  0.34731800  0.38325700  0.72697200  1
  C  C36  1  0.42563200  0.88324300  0.72688800  1
  C  C37  1  0.92562900  0.38319900  0.72689300  1
