# generated using pymatgen
data_Cu7NiC4
_symmetry_space_group_name_H-M   'P 1'
_cell_length_a   4.78028500
_cell_length_b   8.10381675
_cell_length_c   8.03901697
_cell_angle_alpha   72.53639316
_cell_angle_beta   90.00000000
_cell_angle_gamma   90.00000000
_symmetry_Int_Tables_number   1
_chemical_formula_structural   Cu7NiC4
_chemical_formula_sum   'Cu14 Ni2 C8'
_cell_volume   297.06585023
_cell_formula_units_Z   2
loop_
 _symmetry_equiv_pos_site_id
 _symmetry_equiv_pos_as_xyz
  1  'x, y, z'
loop_
 _atom_site_type_symbol
 _atom_site_label
 _atom_site_symmetry_multiplicity
 _atom_site_fract_x
 _atom_site_fract_y
 _atom_site_fract_z
 _atom_site_occupancy
  C  C0  1  0.49052400  0.13960800  0.62207900  1
  C  C1  1  0.49987400  0.87292800  0.38128300  1
  C  C2  1  0.48353600  0.37345300  0.86473400  1
  C  C3  1  0.52050500  0.62934100  0.11694800  1
  C  C4  1  0.98353600  0.75154700  0.76026600  1
  C  C5  1  0.02050500  0.49565900  0.50805200  1
  C  C6  1  0.99987400  0.25207200  0.24371700  1
  C  C7  1  0.99052400  0.98539200  0.00292100  1
  Ni  Ni8  1  0.80862700  0.77106400  0.96515500  1
  Ni  Ni9  1  0.30862700  0.35393600  0.65984500  1
  Cu  Cu10  1  0.80743100  0.27824400  0.46992400  1
  Cu  Cu11  1  0.79060400  0.53597000  0.72912200  1
  Cu  Cu12  1  0.80164600  0.02087700  0.22763800  1
  Cu  Cu13  1  0.69968700  0.90800600  0.60259600  1
  Cu  Cu14  1  0.70534900  0.16027300  0.85474500  1
  Cu  Cu15  1  0.70660000  0.64557400  0.35675400  1
  Cu  Cu16  1  0.68561700  0.38819500  0.08491100  1
  Cu  Cu17  1  0.30743100  0.84675600  0.15507600  1
  Cu  Cu18  1  0.29060400  0.58903000  0.89587800  1
  Cu  Cu19  1  0.30164600  0.10412300  0.39736200  1
  Cu  Cu20  1  0.19968700  0.21699400  0.02240400  1
  Cu  Cu21  1  0.18561700  0.73680500  0.54008900  1
  Cu  Cu22  1  0.20534900  0.96472700  0.77025500  1
  Cu  Cu23  1  0.20660000  0.47942600  0.26824600  1
