# generated using pymatgen
data_Cu16Ni4C7
_symmetry_space_group_name_H-M   'P 1'
_cell_length_a   10.00972053
_cell_length_b   9.98926192
_cell_length_c   9.80560557
_cell_angle_alpha   60.74359621
_cell_angle_beta   60.53522029
_cell_angle_gamma   58.72118350
_symmetry_Int_Tables_number   1
_chemical_formula_structural   Cu16Ni4C7
_chemical_formula_sum   'Cu32 Ni8 C14'
_cell_volume   692.77347248
_cell_formula_units_Z   2
loop_
 _symmetry_equiv_pos_site_id
 _symmetry_equiv_pos_as_xyz
  1  'x, y, z'
loop_
 _atom_site_type_symbol
 _atom_site_label
 _atom_site_symmetry_multiplicity
 _atom_site_fract_x
 _atom_site_fract_y
 _atom_site_fract_z
 _atom_site_occupancy
  C  C0  1  0.29072800  0.70927200  0.70927200  1
  C  C1  1  0.70884200  0.29115800  0.70884200  1
  C  C2  1  0.95884200  0.54115800  0.95884200  1
  C  C3  1  0.54072800  0.95927200  0.95927200  1
  C  C4  1  0.70927200  0.29072800  0.29072800  1
  C  C5  1  0.29115800  0.70884200  0.29115800  1
  C  C6  1  0.54115800  0.95884200  0.54115800  1
  C  C7  1  0.95927200  0.54072800  0.54072800  1
  C  C8  1  0.12500000  0.12500000  0.62500000  1
  C  C9  1  0.12500000  0.12500000  0.12500000  1
  C  C10  1  0.12500000  0.62500000  0.12500000  1
  C  C11  1  0.62500000  0.12500000  0.12500000  1
  Ni  Ni12  1  0.33267400  0.33567300  0.98494500  1
  Ni  Ni13  1  0.91432700  0.91732600  0.90329100  1
  Ni  Ni14  1  0.34670900  0.98494500  0.33567300  1
  Ni  Ni15  1  0.98494500  0.34670900  0.33267400  1
  Ni  Ni16  1  0.26505500  0.90329100  0.91732600  1
  Ni  Ni17  1  0.90329100  0.26505500  0.91432700  1
  Ni  Ni18  1  0.33567300  0.33267400  0.34670900  1
  Ni  Ni19  1  0.91732600  0.91432700  0.26505500  1
  C  C20  1  0.75000000  0.75000000  0.75000000  1
  C  C21  1  0.50000000  0.50000000  0.50000000  1
  Cu  Cu22  1  0.30081300  0.48098100  0.98110600  1
  Cu  Cu23  1  0.93476100  0.68199800  0.69120500  1
  Cu  Cu24  1  0.21846900  0.30754500  0.98867300  1
  Cu  Cu25  1  0.94245500  0.03153100  0.76468600  1
  Cu  Cu26  1  0.48531400  0.98867300  0.30754500  1
  Cu  Cu27  1  0.02683400  0.77111400  0.93024800  1
  Cu  Cu28  1  0.69203600  0.69120500  0.68199800  1
  Cu  Cu29  1  0.68199800  0.93476100  0.69203600  1
  Cu  Cu30  1  0.93024800  0.27180400  0.02683400  1
  Cu  Cu31  1  0.98867300  0.48531400  0.21846900  1
  Cu  Cu32  1  0.76901900  0.94918700  0.01290000  1
  Cu  Cu33  1  0.69120500  0.69203600  0.93476100  1
  Cu  Cu34  1  0.23710000  0.98110600  0.48098100  1
  Cu  Cu35  1  0.98110600  0.23710000  0.30081300  1
  Cu  Cu36  1  0.47888600  0.22316600  0.97819600  1
  Cu  Cu37  1  0.27180400  0.93024800  0.77111400  1
  Cu  Cu38  1  0.97819600  0.31975200  0.47888600  1
  Cu  Cu39  1  0.77111400  0.02683400  0.27180400  1
  Cu  Cu40  1  0.26889400  0.01290000  0.94918700  1
  Cu  Cu41  1  0.01290000  0.26889400  0.76901900  1
  Cu  Cu42  1  0.55879500  0.55796400  0.31523900  1
  Cu  Cu43  1  0.48098100  0.30081300  0.23710000  1
  Cu  Cu44  1  0.26132700  0.76468600  0.03153100  1
  Cu  Cu45  1  0.31975200  0.97819600  0.22316600  1
  Cu  Cu46  1  0.56800200  0.31523900  0.55796400  1
  Cu  Cu47  1  0.55796400  0.55879500  0.56800200  1
  Cu  Cu48  1  0.22316600  0.47888600  0.31975200  1
  Cu  Cu49  1  0.76468600  0.26132700  0.94245500  1
  Cu  Cu50  1  0.30754500  0.21846900  0.48531400  1
  Cu  Cu51  1  0.03153100  0.94245500  0.26132700  1
  Cu  Cu52  1  0.31523900  0.56800200  0.55879500  1
  Cu  Cu53  1  0.94918700  0.76901900  0.26889400  1
