# generated using pymatgen
data_CuNiC12
_symmetry_space_group_name_H-M   'P 1'
_cell_length_a   4.77893274
_cell_length_b   10.76937635
_cell_length_c   5.97806404
_cell_angle_alpha   90.01194766
_cell_angle_beta   89.99523921
_cell_angle_gamma   91.83040608
_symmetry_Int_Tables_number   1
_chemical_formula_structural   CuNiC12
_chemical_formula_sum   'Cu2 Ni2 C24'
_cell_volume   307.51079729
_cell_formula_units_Z   2
loop_
 _symmetry_equiv_pos_site_id
 _symmetry_equiv_pos_as_xyz
  1  'x, y, z'
loop_
 _atom_site_type_symbol
 _atom_site_label
 _atom_site_symmetry_multiplicity
 _atom_site_fract_x
 _atom_site_fract_y
 _atom_site_fract_z
 _atom_site_occupancy
  C  C0  1  0.00007900  0.00008300  0.99989100  1
  C  C1  1  0.00007200  0.00007100  0.50004800  1
  C  C2  1  0.50011100  0.49990700  0.99996800  1
  C  C3  1  0.50011700  0.49988300  0.50005300  1
  Ni  Ni4  1  0.50716000  0.22446100  0.75001600  1
  Ni  Ni5  1  0.49252900  0.77534400  0.25015900  1
  Cu  Cu6  1  0.01828400  0.72040100  0.75018800  1
  Cu  Cu7  1  0.98155100  0.27968600  0.24996700  1
  C  C8  1  0.41044200  0.09856500  0.24997500  1
  C  C9  1  0.58948900  0.90138800  0.74987100  1
  C  C10  1  0.92095000  0.41229600  0.75000900  1
  C  C11  1  0.07937800  0.58775600  0.25010700  1
  C  C12  1  0.71972200  0.03470800  0.75004800  1
  C  C13  1  0.28043400  0.96519100  0.24993900  1
  C  C14  1  0.73266900  0.10357700  0.24998600  1
  C  C15  1  0.26729600  0.89666000  0.74997200  1
  C  C16  1  0.23929000  0.41635400  0.74999600  1
  C  C17  1  0.76105500  0.58362200  0.25001000  1
  C  C18  1  0.20996700  0.45760800  0.24997400  1
  C  C19  1  0.79019900  0.54241800  0.74998900  1
  C  C20  1  0.28128300  0.16728100  0.04212000  1
  C  C21  1  0.28128400  0.16726000  0.45789700  1
  C  C22  1  0.71811300  0.83278900  0.54162700  1
  C  C23  1  0.71830800  0.83253800  0.95773300  1
  C  C24  1  0.78622000  0.33754600  0.54610000  1
  C  C25  1  0.78620400  0.33757100  0.95391100  1
  C  C26  1  0.21397200  0.66257900  0.04624300  1
  C  C27  1  0.21382100  0.66245700  0.45420100  1
