# generated using pymatgen
data_Cu9(Ni2C25)2
_symmetry_space_group_name_H-M   'P 1'
_cell_length_a   10.92502746
_cell_length_b   10.92502746
_cell_length_c   10.92502746
_cell_angle_alpha   60.00000000
_cell_angle_beta   60.00000000
_cell_angle_gamma   60.00000000
_symmetry_Int_Tables_number   1
_chemical_formula_structural   Cu9(Ni2C25)2
_chemical_formula_sum   'Cu9 Ni4 C50'
_cell_volume   922.04605411
_cell_formula_units_Z   1
loop_
 _symmetry_equiv_pos_site_id
 _symmetry_equiv_pos_as_xyz
  1  'x, y, z'
loop_
 _atom_site_type_symbol
 _atom_site_label
 _atom_site_symmetry_multiplicity
 _atom_site_fract_x
 _atom_site_fract_y
 _atom_site_fract_z
 _atom_site_occupancy
  C  C0  1  0.50000000  0.50000000  0.50000000  1
  C  C1  1  0.04224300  0.04224300  0.45775700  1
  C  C2  1  0.45775700  0.45775700  0.04224300  1
  C  C3  1  0.45775700  0.04224300  0.45775700  1
  C  C4  1  0.45775700  0.04224300  0.04224300  1
  C  C5  1  0.04224300  0.45775700  0.45775700  1
  C  C6  1  0.04224300  0.45775700  0.04224300  1
  C  C7  1  0.74193600  0.25806400  0.74193600  1
  C  C8  1  0.25806400  0.74193600  0.25806400  1
  C  C9  1  0.74193600  0.25806400  0.25806400  1
  C  C10  1  0.25806400  0.25806400  0.74193600  1
  C  C11  1  0.25806400  0.74193600  0.74193600  1
  C  C12  1  0.74193600  0.74193600  0.25806400  1
  C  C13  1  0.01169700  0.66276800  0.66276800  1
  C  C14  1  0.66276800  0.66276800  0.01169700  1
  C  C15  1  0.66276800  0.66276800  0.66276800  1
  C  C16  1  0.66276800  0.01169700  0.66276800  1
  Ni  Ni17  1  0.78708400  0.07097200  0.07097200  1
  Ni  Ni18  1  0.07097200  0.07097200  0.78708400  1
  Ni  Ni19  1  0.07097200  0.07097200  0.07097200  1
  Ni  Ni20  1  0.07097200  0.78708400  0.07097200  1
  Cu  Cu21  1  0.85039300  0.38320200  0.38320200  1
  Cu  Cu22  1  0.38320200  0.38320200  0.85039300  1
  Cu  Cu23  1  0.38320200  0.38320200  0.38320200  1
  Cu  Cu24  1  0.38320200  0.85039300  0.38320200  1
  Cu  Cu25  1  0.88454800  0.88454800  0.88454800  1
  Cu  Cu26  1  0.88454800  0.34635700  0.88454800  1
  Cu  Cu27  1  0.34635700  0.88454800  0.88454800  1
  Cu  Cu28  1  0.88454800  0.88454800  0.34635700  1
  Cu  Cu29  1  0.25000000  0.25000000  0.25000000  1
  C  C30  1  0.05402900  0.31532400  0.31532400  1
  C  C31  1  0.31532400  0.31532400  0.05402900  1
  C  C32  1  0.31532400  0.31532400  0.31532400  1
  C  C33  1  0.31532400  0.05402900  0.31532400  1
  C  C34  1  0.00000000  0.00000000  0.00000000  1
  C  C35  1  0.78531300  0.23134300  0.49167200  1
  C  C36  1  0.49167200  0.49167200  0.78531300  1
  C  C37  1  0.49167200  0.49167200  0.23134300  1
  C  C38  1  0.23134300  0.78531300  0.49167200  1
  C  C39  1  0.49167200  0.23134300  0.49167200  1
  C  C40  1  0.49167200  0.23134300  0.78531300  1
  C  C41  1  0.49167200  0.78531300  0.49167200  1
  C  C42  1  0.23134300  0.49167200  0.49167200  1
  C  C43  1  0.78531300  0.49167200  0.23134300  1
  C  C44  1  0.78531300  0.49167200  0.49167200  1
  C  C45  1  0.23134300  0.49167200  0.78531300  1
  C  C46  1  0.49167200  0.78531300  0.23134300  1
  C  C47  1  0.99498400  0.99498400  0.28299900  1
  C  C48  1  0.28299900  0.72703300  0.99498400  1
  C  C49  1  0.72703300  0.28299900  0.99498400  1
  C  C50  1  0.99498400  0.99498400  0.72703300  1
  C  C51  1  0.28299900  0.99498400  0.72703300  1
  C  C52  1  0.72703300  0.99498400  0.99498400  1
  C  C53  1  0.72703300  0.99498400  0.28299900  1
  C  C54  1  0.99498400  0.72703300  0.28299900  1
  C  C55  1  0.99498400  0.72703300  0.99498400  1
  C  C56  1  0.99498400  0.28299900  0.72703300  1
  C  C57  1  0.99498400  0.28299900  0.99498400  1
  C  C58  1  0.28299900  0.99498400  0.99498400  1
  C  C59  1  0.81973200  0.81973200  0.81973200  1
  C  C60  1  0.81973200  0.54080500  0.81973200  1
  C  C61  1  0.54080500  0.81973200  0.81973200  1
  C  C62  1  0.81973200  0.81973200  0.54080500  1
