# generated using pymatgen
data_CuNi16C41
_symmetry_space_group_name_H-M   'P 1'
_cell_length_a   11.64982100
_cell_length_b   14.67853700
_cell_length_c   4.60868300
_cell_angle_alpha   90.00000000
_cell_angle_beta   90.00000000
_cell_angle_gamma   90.00000000
_symmetry_Int_Tables_number   1
_chemical_formula_structural   CuNi16C41
_chemical_formula_sum   'Cu1 Ni16 C41'
_cell_volume   788.09552474
_cell_formula_units_Z   1
loop_
 _symmetry_equiv_pos_site_id
 _symmetry_equiv_pos_as_xyz
  1  'x, y, z'
loop_
 _atom_site_type_symbol
 _atom_site_label
 _atom_site_symmetry_multiplicity
 _atom_site_fract_x
 _atom_site_fract_y
 _atom_site_fract_z
 _atom_site_occupancy
  Ni  Ni0  1  0.10097500  0.31250000  0.11103400  1
  Ni  Ni1  1  0.10063400  0.06425800  0.10830800  1
  Ni  Ni2  1  0.10063400  0.56074200  0.10830800  1
  Ni  Ni3  1  0.10104800  0.81250000  0.11701900  1
  Ni  Ni4  1  0.39936600  0.06425800  0.10830800  1
  Ni  Ni5  1  0.39902500  0.31250000  0.11103400  1
  Ni  Ni6  1  0.39936600  0.56074200  0.10830800  1
  Ni  Ni7  1  0.39895200  0.81250000  0.11701900  1
  Ni  Ni8  1  0.60037500  0.18953300  0.88976300  1
  Ni  Ni9  1  0.60037500  0.43546700  0.88976300  1
  Ni  Ni10  1  0.59052600  0.94486700  0.87419800  1
  Ni  Ni11  1  0.59052600  0.68013300  0.87419800  1
  Ni  Ni12  1  0.90947400  0.94486700  0.87419800  1
  Ni  Ni13  1  0.89962500  0.18953300  0.88976300  1
  Ni  Ni14  1  0.89962500  0.43546700  0.88976300  1
  Ni  Ni15  1  0.90947400  0.68013300  0.87419800  1
  Cu  Cu16  1  0.75000000  0.81250000  0.13483000  1
  C  C17  1  0.06807100  0.68626600  0.00292100  1
  C  C18  1  0.06933200  0.18855300  0.00782500  1
  C  C19  1  0.06933200  0.43644700  0.00782500  1
  C  C20  1  0.06807100  0.93873400  0.00292100  1
  C  C21  1  0.10533400  0.06388900  0.45784900  1
  C  C22  1  0.10440400  0.31250000  0.46079600  1
  C  C23  1  0.10533400  0.56111100  0.45784900  1
  C  C24  1  0.10138000  0.81250000  0.46848100  1
  C  C25  1  0.25000000  0.56138500  0.00066300  1
  C  C26  1  0.25000000  0.06361500  0.00066300  1
  C  C27  1  0.25000000  0.31250000  0.00287000  1
  C  C28  1  0.25000000  0.81250000  0.02122700  1
  C  C29  1  0.39466600  0.06388900  0.45784900  1
  C  C30  1  0.39559600  0.31250000  0.46079600  1
  C  C31  1  0.39466600  0.56111100  0.45784900  1
  C  C32  1  0.39862000  0.81250000  0.46848100  1
  C  C33  1  0.43066800  0.43644700  0.00782500  1
  C  C34  1  0.43066800  0.18855300  0.00782500  1
  C  C35  1  0.43192900  0.68626600  0.00292100  1
  C  C36  1  0.43192900  0.93873400  0.00292100  1
  C  C37  1  0.59106700  0.81250000  0.99813100  1
  C  C38  1  0.56915400  0.06673700  0.99520600  1
  C  C39  1  0.56750000  0.31250000  0.99401200  1
  C  C40  1  0.56915400  0.55826300  0.99520600  1
  C  C41  1  0.59426900  0.94821000  0.52395500  1
  C  C42  1  0.60380100  0.18890500  0.53983800  1
  C  C43  1  0.60380100  0.43609500  0.53983800  1
  C  C44  1  0.59426900  0.67679000  0.52395500  1
  C  C45  1  0.75000000  0.81250000  0.47987700  1
  C  C46  1  0.75000000  0.93398800  0.99044000  1
  C  C47  1  0.75000000  0.18889500  0.99609100  1
  C  C48  1  0.75000000  0.43610500  0.99609100  1
  C  C49  1  0.75000000  0.69101200  0.99044000  1
  C  C50  1  0.90573100  0.94821000  0.52395500  1
  C  C51  1  0.89619900  0.18890500  0.53983800  1
  C  C52  1  0.89619900  0.43609500  0.53983800  1
  C  C53  1  0.90573100  0.67679000  0.52395500  1
  C  C54  1  0.90893300  0.81250000  0.99813100  1
  C  C55  1  0.93084600  0.06673700  0.99520600  1
  C  C56  1  0.93250000  0.31250000  0.99401200  1
  C  C57  1  0.93084600  0.55826300  0.99520600  1
