# generated using pymatgen
data_CuNiC7
_symmetry_space_group_name_H-M   'P 1'
_cell_length_a   8.33737700
_cell_length_b   11.17223800
_cell_length_c   13.38459000
_cell_angle_alpha   90.00000000
_cell_angle_beta   90.00000000
_cell_angle_gamma   90.00000000
_symmetry_Int_Tables_number   1
_chemical_formula_structural   CuNiC7
_chemical_formula_sum   'Cu8 Ni8 C56'
_cell_volume   1246.73654813
_cell_formula_units_Z   8
loop_
 _symmetry_equiv_pos_site_id
 _symmetry_equiv_pos_as_xyz
  1  'x, y, z'
loop_
 _atom_site_type_symbol
 _atom_site_label
 _atom_site_symmetry_multiplicity
 _atom_site_fract_x
 _atom_site_fract_y
 _atom_site_fract_z
 _atom_site_occupancy
  Ni  Ni0  1  0.50000000  0.75000000  0.57503500  1
  Ni  Ni1  1  0.00000000  0.25000000  0.92496500  1
  Ni  Ni2  1  0.50000000  0.25000000  0.42496500  1
  Ni  Ni3  1  0.00000000  0.75000000  0.07503500  1
  Ni  Ni4  1  0.00000000  0.75000000  0.63148300  1
  Ni  Ni5  1  0.50000000  0.25000000  0.86851700  1
  Ni  Ni6  1  0.00000000  0.25000000  0.36851700  1
  Ni  Ni7  1  0.50000000  0.75000000  0.13148300  1
  Cu  Cu8  1  0.75497500  0.07507700  0.64253900  1
  Cu  Cu9  1  0.25497500  0.92492300  0.85746100  1
  Cu  Cu10  1  0.74502500  0.57507700  0.85746100  1
  Cu  Cu11  1  0.24502500  0.42492300  0.64253900  1
  Cu  Cu12  1  0.24502500  0.92492300  0.35746100  1
  Cu  Cu13  1  0.74502500  0.07507700  0.14253900  1
  Cu  Cu14  1  0.25497500  0.42492300  0.14253900  1
  Cu  Cu15  1  0.75497500  0.57507700  0.35746100  1
  C  C16  1  0.75105000  0.42541000  0.13513600  1
  C  C17  1  0.25105000  0.57459000  0.36486400  1
  C  C18  1  0.74895000  0.92541000  0.36486400  1
  C  C19  1  0.24895000  0.07459000  0.13513600  1
  C  C20  1  0.24895000  0.57459000  0.86486400  1
  C  C21  1  0.74895000  0.42541000  0.63513600  1
  C  C22  1  0.25105000  0.07459000  0.63513600  1
  C  C23  1  0.75105000  0.92541000  0.86486400  1
  C  C24  1  0.71046400  0.87643900  0.72232500  1
  C  C25  1  0.21046400  0.12356100  0.77767500  1
  C  C26  1  0.78953600  0.37643900  0.77767500  1
  C  C27  1  0.28953600  0.62356100  0.72232500  1
  C  C28  1  0.28953600  0.12356100  0.27767500  1
  C  C29  1  0.78953600  0.87643900  0.22232500  1
  C  C30  1  0.21046400  0.62356100  0.22232500  1
  C  C31  1  0.71046400  0.37643900  0.27767500  1
  C  C32  1  0.81139800  0.97843400  0.00234600  1
  C  C33  1  0.31139800  0.02156600  0.49765400  1
  C  C34  1  0.68860200  0.47843400  0.49765400  1
  C  C35  1  0.18860200  0.52156600  0.00234600  1
  C  C36  1  0.18860200  0.02156600  0.99765400  1
  C  C37  1  0.68860200  0.97843400  0.50234600  1
  C  C38  1  0.31139800  0.52156600  0.50234600  1
  C  C39  1  0.81139800  0.47843400  0.99765400  1
  C  C40  1  0.98110100  0.88351400  0.83976000  1
  C  C41  1  0.52139100  0.97046100  0.88394500  1
  C  C42  1  0.48110100  0.11648600  0.66024000  1
  C  C43  1  0.01889900  0.61648600  0.83976000  1
  C  C44  1  0.01889900  0.11648600  0.16024000  1
  C  C45  1  0.51889900  0.88351400  0.33976000  1
  C  C46  1  0.48110100  0.61648600  0.33976000  1
  C  C47  1  0.98110100  0.38351400  0.16024000  1
  C  C48  1  0.78821800  0.76224800  0.42372300  1
  C  C49  1  0.28821800  0.23775200  0.07627700  1
  C  C50  1  0.71178200  0.26224800  0.07627700  1
  C  C51  1  0.21178200  0.73775200  0.42372300  1
  C  C52  1  0.21178200  0.23775200  0.57627700  1
  C  C53  1  0.71178200  0.76224800  0.92372300  1
  C  C54  1  0.28821800  0.73775200  0.92372300  1
  C  C55  1  0.78821800  0.26224800  0.57627700  1
  C  C56  1  0.78529200  0.59492500  0.18443200  1
  C  C57  1  0.28529200  0.40507500  0.31556800  1
  C  C58  1  0.71470800  0.09492500  0.31556800  1
  C  C59  1  0.21470800  0.90507500  0.18443200  1
  C  C60  1  0.21470800  0.40507500  0.81556800  1
  C  C61  1  0.71470800  0.59492500  0.68443200  1
  C  C62  1  0.28529200  0.90507500  0.68443200  1
  C  C63  1  0.78529200  0.09492500  0.81556800  1
  C  C64  1  0.52139100  0.47046100  0.11605500  1
  C  C65  1  0.02139100  0.52953900  0.38394500  1
  C  C66  1  0.97860900  0.97046100  0.38394500  1
  C  C67  1  0.47860900  0.02953900  0.11605500  1
  C  C68  1  0.47860900  0.52953900  0.88394500  1
  C  C69  1  0.97860900  0.47046100  0.61605500  1
  C  C70  1  0.02139100  0.02953900  0.61605500  1
  C  C71  1  0.51889900  0.38351400  0.66024000  1
