# generated using pymatgen
data_Cu12Ni2C
_symmetry_space_group_name_H-M   'P 1'
_cell_length_a   6.44001800
_cell_length_b   7.43589138
_cell_length_c   8.53191853
_cell_angle_alpha   111.88037276
_cell_angle_beta   108.35055907
_cell_angle_gamma   86.25736324
_symmetry_Int_Tables_number   1
_chemical_formula_structural   Cu12Ni2C
_chemical_formula_sum   'Cu12 Ni2 C1'
_cell_volume   359.22961418
_cell_formula_units_Z   1
loop_
 _symmetry_equiv_pos_site_id
 _symmetry_equiv_pos_as_xyz
  1  'x, y, z'
loop_
 _atom_site_type_symbol
 _atom_site_label
 _atom_site_symmetry_multiplicity
 _atom_site_fract_x
 _atom_site_fract_y
 _atom_site_fract_z
 _atom_site_occupancy
  C  C0  1  0.00000000  0.00000000  0.00000000  1
  Ni  Ni1  1  0.48950200  0.42616700  0.69495900  1
  Ni  Ni2  1  0.51049800  0.57383300  0.30504100  1
  Cu  Cu3  1  0.31594800  0.27656000  0.60405700  1
  Cu  Cu4  1  0.68405200  0.72344000  0.39594300  1
  Cu  Cu5  1  0.45196600  0.61547700  0.80784300  1
  Cu  Cu6  1  0.54803400  0.38452300  0.19215700  1
  Cu  Cu7  1  0.70105400  0.38609300  0.67014800  1
  Cu  Cu8  1  0.29894600  0.61390700  0.32985200  1
  Cu  Cu9  1  0.97011900  0.94027800  0.31409600  1
  Cu  Cu10  1  0.02988100  0.05972200  0.68590400  1
  Cu  Cu11  1  0.95972200  0.22881800  0.09192900  1
  Cu  Cu12  1  0.04027800  0.77118200  0.90807100  1
  Cu  Cu13  1  0.85236100  0.92530800  0.16339100  1
  Cu  Cu14  1  0.14763900  0.07469200  0.83660900  1
