# generated using pymatgen
data_Cu2NiC6
_symmetry_space_group_name_H-M   'P 1'
_cell_length_a   6.81248700
_cell_length_b   6.81248700
_cell_length_c   5.98297600
_cell_angle_alpha   90.00000000
_cell_angle_beta   90.00000000
_cell_angle_gamma   90.00000000
_symmetry_Int_Tables_number   1
_chemical_formula_structural   Cu2NiC6
_chemical_formula_sum   'Cu4 Ni2 C12'
_cell_volume   277.66979127
_cell_formula_units_Z   2
loop_
 _symmetry_equiv_pos_site_id
 _symmetry_equiv_pos_as_xyz
  1  'x, y, z'
loop_
 _atom_site_type_symbol
 _atom_site_label
 _atom_site_symmetry_multiplicity
 _atom_site_fract_x
 _atom_site_fract_y
 _atom_site_fract_z
 _atom_site_occupancy
  Ni  Ni0  1  0.50000000  0.50000000  0.00000000  1
  Ni  Ni1  1  0.00000000  0.00000000  0.00000000  1
  Cu  Cu2  1  0.67367800  0.17367800  0.50000000  1
  Cu  Cu3  1  0.17367800  0.32632200  0.50000000  1
  Cu  Cu4  1  0.82632200  0.67367800  0.50000000  1
  Cu  Cu5  1  0.32632200  0.82632200  0.50000000  1
  C  C6  1  0.00000000  0.50000000  0.00000000  1
  C  C7  1  0.50000000  0.00000000  0.00000000  1
  C  C8  1  0.50000000  0.50000000  0.50000000  1
  C  C9  1  0.00000000  0.00000000  0.50000000  1
  C  C10  1  0.14045100  0.64045100  0.25188300  1
  C  C11  1  0.85954900  0.35954900  0.25188300  1
  C  C12  1  0.35954900  0.14045100  0.25188300  1
  C  C13  1  0.64045100  0.85954900  0.25188300  1
  C  C14  1  0.14045100  0.64045100  0.74811700  1
  C  C15  1  0.64045100  0.85954900  0.74811700  1
  C  C16  1  0.85954900  0.35954900  0.74811700  1
  C  C17  1  0.35954900  0.14045100  0.74811700  1
