# generated using pymatgen
data_Cu2Ni3C23
_symmetry_space_group_name_H-M   'P 1'
_cell_length_a   6.15848483
_cell_length_b   6.15848483
_cell_length_c   9.93696180
_cell_angle_alpha   89.74642908
_cell_angle_beta   89.74642908
_cell_angle_gamma   60.03256598
_symmetry_Int_Tables_number   1
_chemical_formula_structural   Cu2Ni3C23
_chemical_formula_sum   'Cu2 Ni3 C23'
_cell_volume   326.48915050
_cell_formula_units_Z   1
loop_
 _symmetry_equiv_pos_site_id
 _symmetry_equiv_pos_as_xyz
  1  'x, y, z'
loop_
 _atom_site_type_symbol
 _atom_site_label
 _atom_site_symmetry_multiplicity
 _atom_site_fract_x
 _atom_site_fract_y
 _atom_site_fract_z
 _atom_site_occupancy
  C  C0  1  0.66449600  0.66449600  0.87428600  1
  C  C1  1  0.99161200  0.99161200  0.99051800  1
  C  C2  1  0.99455100  0.99455100  0.50599300  1
  C  C3  1  0.32795900  0.32795900  0.40069800  1
  Ni  Ni4  1  0.83240800  0.83240800  0.21700600  1
  Ni  Ni5  1  0.66352500  0.17069000  0.71421400  1
  Ni  Ni6  1  0.17069000  0.66352500  0.71421400  1
  Cu  Cu7  1  0.67356700  0.67356700  0.51417800  1
  Cu  Cu8  1  0.34438700  0.34438700  0.97740700  1
  C  C9  1  0.83157800  0.33780800  0.21609000  1
  C  C10  1  0.33780800  0.83157800  0.21609000  1
  C  C11  1  0.17092300  0.17092300  0.71501900  1
  C  C12  1  0.84959200  0.31560200  0.60115600  1
  C  C13  1  0.51252500  0.51252500  0.32976000  1
  C  C14  1  0.66330800  0.66330800  0.10330500  1
  C  C15  1  0.00384400  0.00384400  0.32056600  1
  C  C16  1  0.00590100  0.00590100  0.81338200  1
  C  C17  1  0.31560200  0.84959200  0.60115600  1
  C  C18  1  0.96575900  0.51265700  0.32547700  1
  C  C19  1  0.51265700  0.96575900  0.32547700  1
  C  C20  1  0.15577800  0.15577800  0.10373000  1
  C  C21  1  0.84543500  0.84543500  0.60963800  1
  C  C22  1  0.47937700  0.03324900  0.83279400  1
  C  C23  1  0.03324900  0.47937700  0.83279400  1
  C  C24  1  0.32860000  0.32860000  0.60144300  1
  C  C25  1  0.69342800  0.15934400  0.10998100  1
  C  C26  1  0.48211800  0.48211800  0.83136600  1
  C  C27  1  0.15934400  0.69342800  0.10998100  1
