# generated using pymatgen
data_CuNiC5
_symmetry_space_group_name_H-M   'P 1'
_cell_length_a   6.71187800
_cell_length_b   6.54213100
_cell_length_c   8.70463875
_cell_angle_alpha   72.67936380
_cell_angle_beta   90.00000000
_cell_angle_gamma   90.00000000
_symmetry_Int_Tables_number   1
_chemical_formula_structural   CuNiC5
_chemical_formula_sum   'Cu2 Ni2 C10'
_cell_volume   364.88824410
_cell_formula_units_Z   2
loop_
 _symmetry_equiv_pos_site_id
 _symmetry_equiv_pos_as_xyz
  1  'x, y, z'
loop_
 _atom_site_type_symbol
 _atom_site_label
 _atom_site_symmetry_multiplicity
 _atom_site_fract_x
 _atom_site_fract_y
 _atom_site_fract_z
 _atom_site_occupancy
  Ni  Ni0  1  0.99087100  0.73317300  0.06537900  1
  Ni  Ni1  1  0.49087100  0.26682700  0.93462100  1
  Cu  Cu2  1  0.50911000  0.22841700  0.44909700  1
  Cu  Cu3  1  0.00911000  0.77158300  0.55090300  1
  C  C4  1  0.47414400  0.77478300  0.32548300  1
  C  C5  1  0.97414400  0.22521700  0.67451700  1
  C  C6  1  0.47213900  0.56940700  0.16630400  1
  C  C7  1  0.23632700  0.02503100  0.28063600  1
  C  C8  1  0.74491500  0.98228200  0.29857000  1
  C  C9  1  0.90549500  0.43403400  0.42691200  1
  C  C10  1  0.40549500  0.56596600  0.57308800  1
  C  C11  1  0.24491500  0.01771800  0.70143000  1
  C  C12  1  0.73632700  0.97496900  0.71936400  1
  C  C13  1  0.97213900  0.43059300  0.83369600  1
