# generated using pymatgen
data_Cu(NiC4)2
_symmetry_space_group_name_H-M   'P 1'
_cell_length_a   7.83947575
_cell_length_b   7.83947583
_cell_length_c   5.93029647
_cell_angle_alpha   101.79403264
_cell_angle_beta   101.79403162
_cell_angle_gamma   67.90198671
_symmetry_Int_Tables_number   1
_chemical_formula_structural   Cu(NiC4)2
_chemical_formula_sum   'Cu3 Ni6 C24'
_cell_volume   327.27616360
_cell_formula_units_Z   3
loop_
 _symmetry_equiv_pos_site_id
 _symmetry_equiv_pos_as_xyz
  1  'x, y, z'
loop_
 _atom_site_type_symbol
 _atom_site_label
 _atom_site_symmetry_multiplicity
 _atom_site_fract_x
 _atom_site_fract_y
 _atom_site_fract_z
 _atom_site_occupancy
  C  C0  1  0.32218400  0.66714800  0.49867300  1
  C  C1  1  0.66714800  0.32218400  0.49867300  1
  C  C2  1  0.99839700  0.66826900  0.16666700  1
  C  C3  1  0.66826900  0.99839700  0.16666700  1
  C  C4  1  0.99951900  0.34448200  0.83466100  1
  C  C5  1  0.34448200  0.99951900  0.83466100  1
  Ni  Ni6  1  0.00477300  0.00477300  0.99051000  1
  Ni  Ni7  1  0.66189300  0.66189300  0.34282400  1
  Ni  Ni8  1  0.33103600  0.66777000  0.99269600  1
  Ni  Ni9  1  0.66777000  0.33103600  0.99269600  1
  Ni  Ni10  1  0.99889700  0.33563100  0.34063700  1
  Ni  Ni11  1  0.33563100  0.99889700  0.34063700  1
  Cu  Cu12  1  0.99502200  0.67164500  0.66666700  1
  Cu  Cu13  1  0.33333300  0.33333300  0.66666700  1
  Cu  Cu14  1  0.67164500  0.99502200  0.66666700  1
  C  C15  1  0.81987300  0.81987300  0.44154700  1
  C  C16  1  0.48892000  0.82834900  0.10758500  1
  C  C17  1  0.82834900  0.48892000  0.10758500  1
  C  C18  1  0.84679400  0.84679400  0.89178600  1
  C  C19  1  0.48776800  0.83670100  0.55730500  1
  C  C20  1  0.83670100  0.48776800  0.55730500  1
  C  C21  1  0.17774600  0.83831800  0.22574800  1
  C  C22  1  0.50455900  0.50455900  0.21713600  1
  C  C23  1  0.83831800  0.17774600  0.22574800  1
  C  C24  1  0.17889900  0.82996500  0.77602800  1
  C  C25  1  0.48225000  0.48225000  0.75254200  1
  C  C26  1  0.82996500  0.17889900  0.77602800  1
  C  C27  1  0.14283500  0.50531100  0.44134600  1
  C  C28  1  0.50531100  0.14283500  0.44134600  1
  C  C29  1  0.16210800  0.16210800  0.11619700  1
  C  C30  1  0.16135500  0.52383200  0.89198700  1
  C  C31  1  0.52383200  0.16135500  0.89198700  1
  C  C32  1  0.18441600  0.18441600  0.58079100  1
