# generated using pymatgen
data_Cu2Ni2C23
_symmetry_space_group_name_H-M   'P 1'
_cell_length_a   6.67255713
_cell_length_b   11.47744474
_cell_length_c   13.72645729
_cell_angle_alpha   99.93330082
_cell_angle_beta   88.99395113
_cell_angle_gamma   100.98319741
_symmetry_Int_Tables_number   1
_chemical_formula_structural   Cu2Ni2C23
_chemical_formula_sum   'Cu8 Ni8 C92'
_cell_volume   1016.37311114
_cell_formula_units_Z   4
loop_
 _symmetry_equiv_pos_site_id
 _symmetry_equiv_pos_as_xyz
  1  'x, y, z'
loop_
 _atom_site_type_symbol
 _atom_site_label
 _atom_site_symmetry_multiplicity
 _atom_site_fract_x
 _atom_site_fract_y
 _atom_site_fract_z
 _atom_site_occupancy
  C  C0  1  0.99968300  0.00022000  0.50006300  1
  C  C1  1  0.50017700  0.49991600  0.25005200  1
  C  C2  1  0.00004900  0.00010600  0.00011300  1
  C  C3  1  0.49994000  0.49987000  0.74992100  1
  C  C4  1  0.39571100  0.10325200  0.07596500  1
  C  C5  1  0.39556400  0.10318500  0.57587900  1
  C  C6  1  0.89573700  0.60321400  0.32597700  1
  C  C7  1  0.89553300  0.60318600  0.82594200  1
  C  C8  1  0.10429800  0.39673700  0.67404500  1
  C  C9  1  0.10449700  0.39681600  0.17412500  1
  C  C10  1  0.60446800  0.89680300  0.92406700  1
  C  C11  1  0.60432800  0.89677900  0.42402700  1
  C  C12  1  0.82054000  0.12188600  0.15295200  1
  C  C13  1  0.82043500  0.12181500  0.65296900  1
  C  C14  1  0.32067800  0.62172700  0.40291200  1
  C  C15  1  0.32060500  0.62162900  0.90287900  1
  C  C16  1  0.67944300  0.37809200  0.59704500  1
  C  C17  1  0.67956500  0.37819700  0.09703900  1
  C  C18  1  0.17937000  0.87834800  0.84712000  1
  C  C19  1  0.17931900  0.87829700  0.34709100  1
  C  C20  1  0.38848000  0.09154500  0.45919400  1
  C  C21  1  0.38857700  0.09155400  0.95927400  1
  C  C22  1  0.88850900  0.59157200  0.70925100  1
  C  C23  1  0.88855400  0.59161000  0.20928500  1
  C  C24  1  0.11155200  0.40846600  0.29082000  1
  C  C25  1  0.11145500  0.40845300  0.79073600  1
  C  C26  1  0.61146500  0.90838500  0.54072300  1
  C  C27  1  0.61152000  0.90844300  0.04075900  1
  C  C28  1  0.05388300  0.12598200  0.18201300  1
  C  C29  1  0.05382500  0.12591400  0.68199200  1
  C  C30  1  0.55394900  0.62591000  0.43204100  1
  C  C31  1  0.55392100  0.62586000  0.93196500  1
  C  C32  1  0.44611600  0.37401200  0.56799600  1
  C  C33  1  0.44617900  0.37407900  0.06803100  1
  C  C34  1  0.94607600  0.87412600  0.81804300  1
  C  C35  1  0.94607500  0.87411300  0.31799200  1
  C  C36  1  0.80878300  0.13554600  0.40400400  1
  C  C37  1  0.80888100  0.13552600  0.90406500  1
  C  C38  1  0.30876500  0.63552300  0.65411200  1
  C  C39  1  0.30888100  0.63545100  0.15410300  1
  C  C40  1  0.69125300  0.36446000  0.34597900  1
  C  C41  1  0.69110700  0.36446100  0.84594900  1
  C  C42  1  0.19114600  0.86452500  0.59587000  1
  C  C43  1  0.19122900  0.86448200  0.09590700  1
  C  C44  1  0.04756100  0.13707500  0.36520500  1
  C  C45  1  0.04765500  0.13711900  0.86525000  1
  C  C46  1  0.54750000  0.63705400  0.61528800  1
  C  C47  1  0.54763500  0.63704400  0.11527200  1
  C  C48  1  0.45249100  0.36294300  0.38478200  1
  C  C49  1  0.45230600  0.36287700  0.88473200  1
  C  C50  1  0.95240800  0.86295100  0.63470000  1
  C  C51  1  0.95246900  0.86295600  0.13470200  1
  Ni  Ni52  1  0.47329500  0.19818400  0.27809100  1
  Ni  Ni53  1  0.47325700  0.19814600  0.77808000  1
  Ni  Ni54  1  0.97320600  0.69817700  0.52804800  1
  Ni  Ni55  1  0.97318900  0.69816500  0.02803800  1
  Ni  Ni56  1  0.02674200  0.30182200  0.47190500  1
  Ni  Ni57  1  0.02671300  0.30184600  0.97191100  1
  Ni  Ni58  1  0.52684100  0.80183100  0.72195200  1
  Ni  Ni59  1  0.52674500  0.80180000  0.22191200  1
  Cu  Cu60  1  0.54030600  0.34908000  0.32243100  1
  Cu  Cu61  1  0.54016300  0.34902400  0.82239500  1
  Cu  Cu62  1  0.04019500  0.84910100  0.57233500  1
  Cu  Cu63  1  0.04029100  0.84909500  0.07235200  1
  Cu  Cu64  1  0.95973100  0.15093800  0.42755200  1
  Cu  Cu65  1  0.95983900  0.15096600  0.92760100  1
  Cu  Cu66  1  0.45971400  0.65090600  0.67765000  1
  Cu  Cu67  1  0.45983900  0.65089100  0.17762900  1
  C  C68  1  0.25125600  0.17783200  0.26529900  1
  C  C69  1  0.25123300  0.17780000  0.76529000  1
  C  C70  1  0.75117200  0.67782400  0.51531000  1
  C  C71  1  0.75116600  0.67785500  0.01531800  1
  C  C72  1  0.24874300  0.32216900  0.48469800  1
  C  C73  1  0.24874900  0.32222300  0.98469300  1
  C  C74  1  0.74886100  0.82212700  0.73465500  1
  C  C75  1  0.74876100  0.82218400  0.23470200  1
  C  C76  1  0.93602300  0.07921300  0.14086600  1
  C  C77  1  0.93595400  0.07917400  0.64084500  1
  C  C78  1  0.43625100  0.57911100  0.39079800  1
  C  C79  1  0.43615600  0.57901500  0.89078500  1
  C  C80  1  0.56398400  0.42078400  0.60913900  1
  C  C81  1  0.56405100  0.42083600  0.10917000  1
  C  C82  1  0.06387100  0.92097400  0.85922500  1
  C  C83  1  0.06377200  0.92092500  0.35922000  1
  C  C84  1  0.58078100  0.17756900  0.18443500  1
  C  C85  1  0.58077900  0.17755200  0.68441300  1
  C  C86  1  0.08049600  0.67744200  0.43431700  1
  C  C87  1  0.08042900  0.67742200  0.93430300  1
  C  C88  1  0.91922500  0.32243000  0.56556900  1
  C  C89  1  0.91921500  0.32244100  0.06558200  1
  C  C90  1  0.41958100  0.82257900  0.81569900  1
  C  C91  1  0.41921100  0.82244200  0.31557500  1
  C  C92  1  0.31442200  0.06294900  0.51615000  1
  C  C93  1  0.31459600  0.06295000  0.01623500  1
  C  C94  1  0.81446400  0.56293800  0.76617900  1
  C  C95  1  0.81461100  0.56293600  0.26622600  1
  C  C96  1  0.18560000  0.43706400  0.23386300  1
  C  C97  1  0.18541900  0.43704500  0.73377700  1
  C  C98  1  0.68536800  0.93707100  0.48377400  1
  C  C99  1  0.68554900  0.93706300  0.98383000  1
  C  C100  1  0.53731500  0.13637000  0.35424900  1
  C  C101  1  0.53735300  0.13633500  0.85421900  1
  C  C102  1  0.03725400  0.63639500  0.60423500  1
  C  C103  1  0.03724800  0.63639300  0.10422900  1
  C  C104  1  0.96272600  0.36363300  0.39574800  1
  C  C105  1  0.96265900  0.36365200  0.89575900  1
  C  C106  1  0.46276300  0.86360800  0.64577200  1
  C  C107  1  0.46272300  0.86361700  0.14574500  1
