# generated using pymatgen
data_Cu(NiC2)2
_symmetry_space_group_name_H-M   'P 1'
_cell_length_a   5.52704723
_cell_length_b   5.93716834
_cell_length_c   10.12060979
_cell_angle_alpha   84.50641325
_cell_angle_beta   76.15218122
_cell_angle_gamma   118.23214873
_symmetry_Int_Tables_number   1
_chemical_formula_structural   Cu(NiC2)2
_chemical_formula_sum   'Cu4 Ni8 C16'
_cell_volume   275.48937028
_cell_formula_units_Z   4
loop_
 _symmetry_equiv_pos_site_id
 _symmetry_equiv_pos_as_xyz
  1  'x, y, z'
loop_
 _atom_site_type_symbol
 _atom_site_label
 _atom_site_symmetry_multiplicity
 _atom_site_fract_x
 _atom_site_fract_y
 _atom_site_fract_z
 _atom_site_occupancy
  C  C0  1  0.09608400  0.07183600  0.22672900  1
  C  C1  1  0.10150400  0.60474100  0.75144500  1
  C  C2  1  0.47809700  0.94310200  0.38202800  1
  C  C3  1  0.52584400  0.55782500  0.11906000  1
  C  C4  1  0.28517300  0.26160200  0.44219100  1
  C  C5  1  0.20543800  0.66901500  0.95631900  1
  C  C6  1  0.32931200  0.34359500  0.67642600  1
  C  C7  1  0.74607500  0.27834100  0.05755200  1
  C  C8  1  0.75567200  0.78781100  0.54055800  1
  C  C9  1  0.48406500  0.47527800  0.87842600  1
  C  C10  1  0.50024900  0.00478400  0.61486600  1
  C  C11  1  0.90618900  0.46850600  0.26843500  1
  C  C12  1  0.90730600  0.87988400  0.75011500  1
  C  C13  1  0.66990400  0.14887000  0.82425800  1
  C  C14  1  0.07839600  0.01757800  0.97663100  1
  C  C15  1  0.95057900  0.45462800  0.54392300  1
  Ni  Ni16  1  0.24835900  0.94716600  0.80331100  1
  Ni  Ni17  1  0.39461900  0.22621200  0.03879700  1
  Ni  Ni18  1  0.34736300  0.67163600  0.55358400  1
  Ni  Ni19  1  0.06471900  0.32943800  0.88833800  1
  Ni  Ni20  1  0.91771200  0.67486200  0.09976500  1
  Ni  Ni21  1  0.64087600  0.30993500  0.46365700  1
  Ni  Ni22  1  0.75146700  0.53700300  0.70190000  1
  Ni  Ni23  1  0.90977900  0.12324700  0.61969700  1
  Cu  Cu24  1  0.10837800  0.90116600  0.38890600  1
  Cu  Cu25  1  0.22935200  0.43062500  0.29166200  1
  Cu  Cu26  1  0.60067800  0.79514600  0.93397400  1
  Cu  Cu27  1  0.76681400  0.08616700  0.20744800  1
