# generated using pymatgen
data_CuNiC5
_symmetry_space_group_name_H-M   'P 1'
_cell_length_a   9.96261416
_cell_length_b   9.96261416
_cell_length_c   24.54993500
_cell_angle_alpha   90.00000000
_cell_angle_beta   90.00000000
_cell_angle_gamma   120.00000108
_symmetry_Int_Tables_number   1
_chemical_formula_structural   CuNiC5
_chemical_formula_sum   'Cu24 Ni24 C120'
_cell_volume   2110.21932392
_cell_formula_units_Z   24
loop_
 _symmetry_equiv_pos_site_id
 _symmetry_equiv_pos_as_xyz
  1  'x, y, z'
loop_
 _atom_site_type_symbol
 _atom_site_label
 _atom_site_symmetry_multiplicity
 _atom_site_fract_x
 _atom_site_fract_y
 _atom_site_fract_z
 _atom_site_occupancy
  C  C0  1  0.02851700  0.96713300  0.69223600  1
  C  C1  1  0.03681500  0.59710600  0.03373300  1
  C  C2  1  0.05904000  0.45038900  0.19409100  1
  C  C3  1  0.04704800  0.46946600  0.84794500  1
  C  C4  1  0.39134900  0.94096000  0.86075800  1
  C  C5  1  0.42241800  0.95295200  0.51461200  1
  C  C6  1  0.03286700  0.06138400  0.02556900  1
  C  C7  1  0.06138400  0.02851700  0.85890300  1
  C  C8  1  0.56029200  0.96318500  0.70040000  1
  C  C9  1  0.40289400  0.43970800  0.36706600  1
  C  C10  1  0.53053400  0.57758200  0.18127900  1
  C  C11  1  0.54961100  0.60865100  0.52742400  1
  C  C12  1  0.45038900  0.39134900  0.02742400  1
  C  C13  1  0.46946600  0.42241800  0.68127900  1
  C  C14  1  0.59710600  0.56029200  0.86706600  1
  C  C15  1  0.43970800  0.03681500  0.20040000  1
  C  C16  1  0.93861600  0.97148300  0.35890300  1
  C  C17  1  0.96713300  0.93861600  0.52556900  1
  C  C18  1  0.57758200  0.04704800  0.01461200  1
  C  C19  1  0.60865100  0.05904000  0.36075800  1
  C  C20  1  0.95295200  0.53053400  0.34794500  1
  C  C21  1  0.94096000  0.54961100  0.69409100  1
  C  C22  1  0.96318500  0.40289400  0.53373300  1
  C  C23  1  0.97148300  0.03286700  0.19223600  1
  Ni  Ni24  1  0.09627900  0.82242600  0.27019700  1
  Ni  Ni25  1  0.07756000  0.75302400  0.91651800  1
  Ni  Ni26  1  0.11833500  0.74149600  0.59158100  1
  Ni  Ni27  1  0.30735500  0.67324300  0.75599900  1
  Ni  Ni28  1  0.32675700  0.63411200  0.08933200  1
  Ni  Ni29  1  0.36588800  0.69264500  0.42266600  1
  Ni  Ni30  1  0.17757400  0.27385300  0.60353100  1
  Ni  Ni31  1  0.25850400  0.37683900  0.92491500  1
  Ni  Ni32  1  0.24697600  0.32453600  0.24985100  1
  Ni  Ni33  1  0.62316100  0.88166500  0.25824800  1
  Ni  Ni34  1  0.67546400  0.92244000  0.58318400  1
  Ni  Ni35  1  0.27385300  0.09627900  0.43686400  1
  Ni  Ni36  1  0.72614700  0.90372100  0.93686400  1
  Ni  Ni37  1  0.32453600  0.07756000  0.08318400  1
  Ni  Ni38  1  0.37683900  0.11833500  0.75824800  1
  Ni  Ni39  1  0.75302400  0.67546400  0.74985100  1
  Ni  Ni40  1  0.74149600  0.62316100  0.42491500  1
  Ni  Ni41  1  0.82242600  0.72614700  0.10353100  1
  Ni  Ni42  1  0.63411200  0.30735500  0.92266600  1
  Ni  Ni43  1  0.67324300  0.36588800  0.58933200  1
  Ni  Ni44  1  0.69264500  0.32675700  0.25599900  1
  Ni  Ni45  1  0.88166500  0.25850400  0.09158100  1
  Ni  Ni46  1  0.92244000  0.24697600  0.41651800  1
  Ni  Ni47  1  0.90372100  0.17757400  0.77019700  1
  Cu  Cu48  1  0.08623000  0.79029300  0.78855200  1
  Cu  Cu49  1  0.07564500  0.74670100  0.46537800  1
  Cu  Cu50  1  0.13556700  0.76686600  0.14214100  1
  Cu  Cu51  1  0.27622600  0.64295100  0.29790100  1
  Cu  Cu52  1  0.36672400  0.72377400  0.96456700  1
  Cu  Cu53  1  0.35704900  0.63327600  0.63123400  1
  Cu  Cu54  1  0.23313400  0.36870100  0.47547500  1
  Cu  Cu55  1  0.20970700  0.29593700  0.12188600  1
  Cu  Cu56  1  0.25329900  0.32894400  0.79871200  1
  Cu  Cu57  1  0.63129900  0.86443300  0.80880800  1
  Cu  Cu58  1  0.67105600  0.92435500  0.13204500  1
  Cu  Cu59  1  0.70406300  0.91377000  0.45521900  1
  Cu  Cu60  1  0.29593700  0.08623000  0.95521900  1
  Cu  Cu61  1  0.32894400  0.07564500  0.63204500  1
  Cu  Cu62  1  0.36870100  0.13556700  0.30880800  1
  Cu  Cu63  1  0.74670100  0.67105600  0.29871200  1
  Cu  Cu64  1  0.79029300  0.70406300  0.62188600  1
  Cu  Cu65  1  0.76686600  0.63129900  0.97547500  1
  Cu  Cu66  1  0.64295100  0.36672400  0.13123400  1
  Cu  Cu67  1  0.63327600  0.27622600  0.46456700  1
  Cu  Cu68  1  0.72377400  0.35704900  0.79790100  1
  Cu  Cu69  1  0.86443300  0.23313400  0.64214100  1
  Cu  Cu70  1  0.92435500  0.25329900  0.96537800  1
  Cu  Cu71  1  0.91377000  0.20970700  0.28855200  1
  C  C72  1  0.02268800  0.75038300  0.09038700  1
  C  C73  1  0.09712000  0.92316700  0.47074000  1
  C  C74  1  0.01551900  0.68540100  0.84421600  1
  C  C75  1  0.12978800  0.96499100  0.92525500  1
  C  C76  1  0.04140000  0.75941700  0.19767000  1
  C  C77  1  0.01474900  0.65917800  0.52462300  1
  C  C78  1  0.23694500  0.95784400  0.80735600  1
  C  C79  1  0.12780700  0.67076500  0.30582900  1
  C  C80  1  0.12610400  0.68791500  0.74614000  1
  C  C81  1  0.29787300  0.94528100  0.58458700  1
  C  C82  1  0.30200400  0.93273600  0.13726200  1
  C  C83  1  0.17307200  0.62358100  0.13894400  1
  C  C84  1  0.24865000  0.77266600  0.45359500  1
  C  C85  1  0.18899400  0.60900100  0.61184500  1
  C  C86  1  0.06726400  0.36926800  0.47059500  1
  C  C87  1  0.27249700  0.76341600  0.91793700  1
  C  C88  1  0.05471900  0.35259100  0.91792000  1
  C  C89  1  0.04215600  0.27910100  0.14069000  1
  C  C90  1  0.03500900  0.16479700  0.25858900  1
  C  C91  1  0.07683300  0.17395300  0.80407400  1
  C  C92  1  0.26970700  0.68405600  0.02228900  1
  C  C93  1  0.23658400  0.50908100  0.25127000  1
  C  C94  1  0.31594400  0.58565100  0.35562200  1
  C  C95  1  0.22733400  0.47598400  0.78692800  1
  C  C96  1  0.41434900  0.73029300  0.68895500  1
  C  C97  1  0.42000700  0.81100600  0.27851200  1
  C  C98  1  0.45050900  0.82692800  0.80561000  1
  C  C99  1  0.31208500  0.43819000  0.07947300  1
  C  C100  1  0.32923500  0.45704100  0.63916200  1
  C  C101  1  0.37641900  0.54949100  0.47227700  1
  C  C102  1  0.24058300  0.28198200  0.53100400  1
  C  C103  1  0.39099900  0.57999300  0.94517900  1
  C  C104  1  0.49091900  0.72750300  0.58460400  1
  C  C105  1  0.54295900  0.87219300  0.97249500  1
  C  C106  1  0.56181000  0.87389600  0.41280600  1
  C  C107  1  0.16479700  0.12978800  0.09192200  1
  C  C108  1  0.24961700  0.27230500  0.42372000  1
  C  C109  1  0.31459900  0.33011800  0.17754900  1
  C  C110  1  0.17395300  0.09712000  0.63740700  1
  C  C111  1  0.34082200  0.35557100  0.85795600  1
  C  C112  1  0.52401600  0.75135000  0.12026100  1
  C  C113  1  0.27910100  0.23694500  0.97402300  1
  C  C114  1  0.64442900  0.98525100  0.19129000  1
  C  C115  1  0.35259100  0.29787300  0.75125300  1
  C  C116  1  0.36926800  0.30200400  0.30392800  1
  C  C117  1  0.66988200  0.98448100  0.51088300  1
  C  C118  1  0.71801800  0.95860000  0.86433700  1
  C  C119  1  0.27230500  0.02268800  0.25705400  1
  C  C120  1  0.72769500  0.97731200  0.75705400  1
  C  C121  1  0.28198200  0.04140000  0.36433700  1
  C  C122  1  0.33011800  0.01551900  0.01088300  1
  C  C123  1  0.63073200  0.69799600  0.80392800  1
  C  C124  1  0.64740900  0.70212700  0.25125300  1
  C  C125  1  0.35557100  0.01474900  0.69129000  1
  C  C126  1  0.72089900  0.76305500  0.47402300  1
  C  C127  1  0.47598400  0.24865000  0.62026100  1
  C  C128  1  0.65917800  0.64442900  0.35795600  1
  C  C129  1  0.82604700  0.90288000  0.13740700  1
  C  C130  1  0.68540100  0.66988200  0.67754900  1
  C  C131  1  0.75038300  0.72769500  0.92372000  1
  C  C132  1  0.83520300  0.87021200  0.59192200  1
  C  C133  1  0.43819000  0.12610400  0.91280600  1
  C  C134  1  0.45704100  0.12780700  0.47249500  1
  C  C135  1  0.50908100  0.27249700  0.08460400  1
  C  C136  1  0.60900100  0.42000700  0.44517900  1
  C  C137  1  0.75941700  0.71801800  0.03100400  1
  C  C138  1  0.62358100  0.45050900  0.97227700  1
  C  C139  1  0.67076500  0.54295900  0.13916200  1
  C  C140  1  0.68791500  0.56181000  0.57947300  1
  C  C141  1  0.54949100  0.17307200  0.30561000  1
  C  C142  1  0.57999300  0.18899400  0.77851200  1
  C  C143  1  0.58565100  0.26970700  0.18895500  1
  C  C144  1  0.77266600  0.52401600  0.28692800  1
  C  C145  1  0.68405600  0.41434900  0.85562200  1
  C  C146  1  0.76341600  0.49091900  0.75127000  1
  C  C147  1  0.73029300  0.31594400  0.52228900  1
  C  C148  1  0.92316700  0.82604700  0.30407400  1
  C  C149  1  0.96499100  0.83520300  0.75858900  1
  C  C150  1  0.95784400  0.72089900  0.64069000  1
  C  C151  1  0.94528100  0.64740900  0.41792000  1
  C  C152  1  0.72750300  0.23658400  0.41793700  1
  C  C153  1  0.93273600  0.63073200  0.97059500  1
  C  C154  1  0.81100600  0.39099900  0.11184500  1
  C  C155  1  0.75135000  0.22733400  0.95359500  1
  C  C156  1  0.82692800  0.37641900  0.63894400  1
  C  C157  1  0.69799600  0.06726400  0.63726200  1
  C  C158  1  0.70212700  0.05471900  0.08458700  1
  C  C159  1  0.87389600  0.31208500  0.24614000  1
  C  C160  1  0.87219300  0.32923500  0.80582900  1
  C  C161  1  0.76305500  0.04215600  0.30735600  1
  C  C162  1  0.98525100  0.34082200  0.02462300  1
  C  C163  1  0.95860000  0.24058300  0.69767000  1
  C  C164  1  0.87021200  0.03500900  0.42525500  1
  C  C165  1  0.98448100  0.31459900  0.34421600  1
  C  C166  1  0.90288000  0.07683300  0.97074000  1
  C  C167  1  0.97731200  0.24961700  0.59038700  1
