# generated using pymatgen
data_Cu2NiC
_symmetry_space_group_name_H-M   'P 1'
_cell_length_a   3.98624200
_cell_length_b   4.02729000
_cell_length_c   8.35026006
_cell_angle_alpha   76.04571869
_cell_angle_beta   90.00000000
_cell_angle_gamma   90.00000000
_symmetry_Int_Tables_number   1
_chemical_formula_structural   Cu2NiC
_chemical_formula_sum   'Cu4 Ni2 C2'
_cell_volume   130.09689753
_cell_formula_units_Z   2
loop_
 _symmetry_equiv_pos_site_id
 _symmetry_equiv_pos_as_xyz
  1  'x, y, z'
loop_
 _atom_site_type_symbol
 _atom_site_label
 _atom_site_symmetry_multiplicity
 _atom_site_fract_x
 _atom_site_fract_y
 _atom_site_fract_z
 _atom_site_occupancy
  C  C0  1  0.25000000  0.10726200  0.78547600  1
  C  C1  1  0.75000000  0.89273800  0.21452400  1
  Ni  Ni2  1  0.25000000  0.32059300  0.35881400  1
  Ni  Ni3  1  0.75000000  0.67940700  0.64118600  1
  Cu  Cu4  1  0.75000000  0.24986700  0.50026600  1
  Cu  Cu5  1  0.25000000  0.75013300  0.49973400  1
  Cu  Cu6  1  0.75000000  0.54249500  0.91501000  1
  Cu  Cu7  1  0.25000000  0.45750500  0.08499000  1
