# generated using pymatgen
data_Cu11Ni9C10
_symmetry_space_group_name_H-M   'P 1'
_cell_length_a   15.50504700
_cell_length_b   4.75466400
_cell_length_c   4.76634039
_cell_angle_alpha   87.82228338
_cell_angle_beta   90.00000000
_cell_angle_gamma   90.00000000
_symmetry_Int_Tables_number   1
_chemical_formula_structural   Cu11Ni9C10
_chemical_formula_sum   'Cu11 Ni9 C10'
_cell_volume   351.12697893
_cell_formula_units_Z   1
loop_
 _symmetry_equiv_pos_site_id
 _symmetry_equiv_pos_as_xyz
  1  'x, y, z'
loop_
 _atom_site_type_symbol
 _atom_site_label
 _atom_site_symmetry_multiplicity
 _atom_site_fract_x
 _atom_site_fract_y
 _atom_site_fract_z
 _atom_site_occupancy
  C  C0  1  0.30286600  0.99443300  0.98574100  1
  C  C1  1  0.50000000  0.97674300  0.97422200  1
  C  C2  1  0.69713400  0.99443300  0.98574100  1
  C  C3  1  0.90898300  0.97146200  0.01185600  1
  C  C4  1  0.09101700  0.97146200  0.01185600  1
  C  C5  1  0.38804000  0.52394700  0.52256900  1
  C  C6  1  0.79766000  0.50243600  0.48052200  1
  C  C7  1  0.61196000  0.52394700  0.52256900  1
  C  C8  1  0.00000000  0.54329600  0.50232800  1
  C  C9  1  0.20234000  0.50243600  0.48052200  1
  Ni  Ni10  1  0.40171500  0.81175200  0.80603500  1
  Ni  Ni11  1  0.59828500  0.81175200  0.80603500  1
  Ni  Ni12  1  0.00000000  0.79831000  0.79951000  1
  Ni  Ni13  1  0.29909200  0.70205300  0.29534900  1
  Ni  Ni14  1  0.70090800  0.70205300  0.29534900  1
  Ni  Ni15  1  0.89689300  0.68556000  0.31502500  1
  Ni  Ni16  1  0.10310700  0.68556000  0.31502500  1
  Ni  Ni17  1  0.29687300  0.30220900  0.69481400  1
  Ni  Ni18  1  0.70312700  0.30220900  0.69481400  1
  Cu  Cu19  1  0.79936500  0.80071300  0.80257400  1
  Cu  Cu20  1  0.20063500  0.80071300  0.80257400  1
  Cu  Cu21  1  0.50000000  0.69560200  0.31168600  1
  Cu  Cu22  1  0.50000000  0.31597700  0.69311600  1
  Cu  Cu23  1  0.89895700  0.29582200  0.70530400  1
  Cu  Cu24  1  0.10104300  0.29582200  0.70530400  1
  Cu  Cu25  1  0.40489800  0.19881000  0.19367800  1
  Cu  Cu26  1  0.79935000  0.18912400  0.18772700  1
  Cu  Cu27  1  0.59510200  0.19881000  0.19367800  1
  Cu  Cu28  1  0.20065000  0.18912400  0.18772700  1
  Cu  Cu29  1  0.00000000  0.21343100  0.21675400  1
