# generated using pymatgen
data_Cu4NiC2
_symmetry_space_group_name_H-M   'P 1'
_cell_length_a   7.19595700
_cell_length_b   10.35222700
_cell_length_c   14.19269600
_cell_angle_alpha   90.00000000
_cell_angle_beta   90.00000000
_cell_angle_gamma   90.00000000
_symmetry_Int_Tables_number   1
_chemical_formula_structural   Cu4NiC2
_chemical_formula_sum   'Cu48 Ni12 C24'
_cell_volume   1057.27325542
_cell_formula_units_Z   12
loop_
 _symmetry_equiv_pos_site_id
 _symmetry_equiv_pos_as_xyz
  1  'x, y, z'
loop_
 _atom_site_type_symbol
 _atom_site_label
 _atom_site_symmetry_multiplicity
 _atom_site_fract_x
 _atom_site_fract_y
 _atom_site_fract_z
 _atom_site_occupancy
  C  C0  1  0.24743600  0.12984500  0.16310300  1
  C  C1  1  0.37648500  0.15598300  0.81082900  1
  C  C2  1  0.87648500  0.34401700  0.31082900  1
  C  C3  1  0.74743600  0.37015500  0.66310300  1
  C  C4  1  0.25256400  0.62984500  0.16310300  1
  C  C5  1  0.12351500  0.65598300  0.81082900  1
  C  C6  1  0.62351500  0.84401700  0.31082900  1
  C  C7  1  0.75256400  0.87015500  0.66310300  1
  C  C8  1  0.08003400  0.05558400  0.36702100  1
  C  C9  1  0.08192200  0.04985400  0.57951500  1
  C  C10  1  0.70442500  0.17703800  0.00580000  1
  C  C11  1  0.55042300  0.24003800  0.48042300  1
  C  C12  1  0.05042300  0.25996200  0.98042300  1
  C  C13  1  0.20442500  0.32296200  0.50580000  1
  C  C14  1  0.58192200  0.45014600  0.07951500  1
  C  C15  1  0.58003400  0.44441600  0.86702100  1
  C  C16  1  0.41996600  0.55558400  0.36702100  1
  C  C17  1  0.41807800  0.54985400  0.57951500  1
  C  C18  1  0.79557500  0.67703800  0.00580000  1
  C  C19  1  0.94957700  0.74003800  0.48042300  1
  C  C20  1  0.44957700  0.75996200  0.98042300  1
  C  C21  1  0.29557500  0.82296200  0.50580000  1
  C  C22  1  0.91807800  0.95014600  0.07951500  1
  C  C23  1  0.91996600  0.94441600  0.86702100  1
  Ni  Ni24  1  0.71311500  0.07830900  0.13865200  1
  Ni  Ni25  1  0.77496900  0.09541800  0.48116100  1
  Ni  Ni26  1  0.86440400  0.14586800  0.83039000  1
  Ni  Ni27  1  0.36440400  0.35413200  0.33039000  1
  Ni  Ni28  1  0.27496900  0.40458200  0.98116100  1
  Ni  Ni29  1  0.21311500  0.42169100  0.63865200  1
  Ni  Ni30  1  0.78688500  0.57830900  0.13865200  1
  Ni  Ni31  1  0.72503100  0.59541800  0.48116100  1
  Ni  Ni32  1  0.63559600  0.64586800  0.83039000  1
  Ni  Ni33  1  0.13559600  0.85413200  0.33039000  1
  Ni  Ni34  1  0.22503100  0.90458200  0.98116100  1
  Ni  Ni35  1  0.28688500  0.92169100  0.63865200  1
  Cu  Cu36  1  0.18194400  0.00403800  0.33478100  1
  Cu  Cu37  1  0.64293000  0.00619300  0.43999900  1
  Cu  Cu38  1  0.56510300  0.04338700  0.20328400  1
  Cu  Cu39  1  0.22456200  0.04633200  0.58610300  1
  Cu  Cu40  1  0.86783100  0.04582700  0.56746700  1
  Cu  Cu41  1  0.91586400  0.14634400  0.41466500  1
  Cu  Cu42  1  0.87448100  0.14422900  0.17617500  1
  Cu  Cu43  1  0.04342700  0.16475200  0.78502500  1
  Cu  Cu44  1  0.61588200  0.16116700  0.06122000  1
  Cu  Cu45  1  0.86571600  0.19378100  0.92987800  1
  Cu  Cu46  1  0.70649000  0.19744200  0.77665900  1
  Cu  Cu47  1  0.66238800  0.21637800  0.52024300  1
  Cu  Cu48  1  0.16238800  0.28362200  0.02024300  1
  Cu  Cu49  1  0.20649000  0.30255800  0.27665900  1
  Cu  Cu50  1  0.36571600  0.30621900  0.42987800  1
  Cu  Cu51  1  0.11588200  0.33883300  0.56122000  1
  Cu  Cu52  1  0.54342700  0.33524800  0.28502500  1
  Cu  Cu53  1  0.37448100  0.35577100  0.67617500  1
  Cu  Cu54  1  0.41586500  0.35365600  0.91466500  1
  Cu  Cu55  1  0.36783100  0.45417300  0.06746700  1
  Cu  Cu56  1  0.72456200  0.45366800  0.08610300  1
  Cu  Cu57  1  0.06510300  0.45661300  0.70328400  1
  Cu  Cu58  1  0.14293000  0.49380700  0.93999900  1
  Cu  Cu59  1  0.68194400  0.49596200  0.83478100  1
  Cu  Cu60  1  0.31805600  0.50403800  0.33478100  1
  Cu  Cu61  1  0.85707000  0.50619300  0.43999900  1
  Cu  Cu62  1  0.93489700  0.54338700  0.20328400  1
  Cu  Cu63  1  0.27543800  0.54633200  0.58610300  1
  Cu  Cu64  1  0.63216900  0.54582700  0.56746700  1
  Cu  Cu65  1  0.58413600  0.64634400  0.41466500  1
  Cu  Cu66  1  0.62551900  0.64422900  0.17617500  1
  Cu  Cu67  1  0.45657300  0.66475200  0.78502500  1
  Cu  Cu68  1  0.88411800  0.66116700  0.06122000  1
  Cu  Cu69  1  0.63428400  0.69378100  0.92987800  1
  Cu  Cu70  1  0.79351000  0.69744200  0.77665900  1
  Cu  Cu71  1  0.83761200  0.71637800  0.52024300  1
  Cu  Cu72  1  0.33761200  0.78362200  0.02024300  1
  Cu  Cu73  1  0.29351000  0.80255800  0.27665900  1
  Cu  Cu74  1  0.13428400  0.80621900  0.42987800  1
  Cu  Cu75  1  0.38411800  0.83883300  0.56122000  1
  Cu  Cu76  1  0.95657300  0.83524800  0.28502500  1
  Cu  Cu77  1  0.12551900  0.85577100  0.67617500  1
  Cu  Cu78  1  0.08413600  0.85365600  0.91466500  1
  Cu  Cu79  1  0.13216900  0.95417300  0.06746700  1
  Cu  Cu80  1  0.77543800  0.95366800  0.08610300  1
  Cu  Cu81  1  0.43489700  0.95661300  0.70328400  1
  Cu  Cu82  1  0.35707000  0.99380700  0.93999900  1
  Cu  Cu83  1  0.81805600  0.99596200  0.83478100  1
