# generated using pymatgen
data_Cu3Ni2C19
_symmetry_space_group_name_H-M   'P 1'
_cell_length_a   6.17369211
_cell_length_b   6.17369211
_cell_length_c   9.30657253
_cell_angle_alpha   88.43887314
_cell_angle_beta   88.43887314
_cell_angle_gamma   58.95992272
_symmetry_Int_Tables_number   1
_chemical_formula_structural   Cu3Ni2C19
_chemical_formula_sum   'Cu3 Ni2 C19'
_cell_volume   303.77347085
_cell_formula_units_Z   1
loop_
 _symmetry_equiv_pos_site_id
 _symmetry_equiv_pos_as_xyz
  1  'x, y, z'
loop_
 _atom_site_type_symbol
 _atom_site_label
 _atom_site_symmetry_multiplicity
 _atom_site_fract_x
 _atom_site_fract_y
 _atom_site_fract_z
 _atom_site_occupancy
  Ni  Ni0  1  0.67862000  0.67862000  0.48770600  1
  Ni  Ni1  1  0.35948600  0.35948600  0.03819500  1
  Cu  Cu2  1  0.82652400  0.82652400  0.79101300  1
  Cu  Cu3  1  0.16969100  0.67003300  0.29903600  1
  Cu  Cu4  1  0.67003300  0.16969100  0.29903600  1
  C  C5  1  0.32881800  0.82656500  0.78508800  1
  C  C6  1  0.82656500  0.32881800  0.78508800  1
  C  C7  1  0.17167700  0.17167700  0.28506100  1
  C  C8  1  0.35167900  0.84593700  0.40123400  1
  C  C9  1  0.51354300  0.51354300  0.66283200  1
  C  C10  1  0.64643600  0.64643600  0.90413700  1
  C  C11  1  0.00414200  0.00414200  0.67521700  1
  C  C12  1  0.01331000  0.01331000  0.19659400  1
  C  C13  1  0.84593700  0.35167900  0.40123400  1
  C  C14  1  0.50473400  0.94675900  0.66711400  1
  C  C15  1  0.94675900  0.50473400  0.66711400  1
  C  C16  1  0.15202400  0.15202400  0.89369800  1
  C  C17  1  0.82798100  0.82798100  0.40979800  1
  C  C18  1  0.04901200  0.46706600  0.15047200  1
  C  C19  1  0.46706600  0.04901200  0.15047200  1
  C  C20  1  0.32136100  0.32136100  0.39525100  1
  C  C21  1  0.17335400  0.66944500  0.89218900  1
  C  C22  1  0.48213200  0.48213200  0.15448500  1
  C  C23  1  0.66944500  0.17335400  0.89218900  1
