# generated using pymatgen
data_Cu3Ni6C5
_symmetry_space_group_name_H-M   'P 1'
_cell_length_a   7.10297700
_cell_length_b   9.65597400
_cell_length_c   11.95948200
_cell_angle_alpha   90.00000000
_cell_angle_beta   90.00000000
_cell_angle_gamma   90.00000000
_symmetry_Int_Tables_number   1
_chemical_formula_structural   Cu3Ni6C5
_chemical_formula_sum   'Cu12 Ni24 C20'
_cell_volume   820.25496073
_cell_formula_units_Z   4
loop_
 _symmetry_equiv_pos_site_id
 _symmetry_equiv_pos_as_xyz
  1  'x, y, z'
loop_
 _atom_site_type_symbol
 _atom_site_label
 _atom_site_symmetry_multiplicity
 _atom_site_fract_x
 _atom_site_fract_y
 _atom_site_fract_z
 _atom_site_occupancy
  C  C0  1  0.76172100  0.37997000  0.42869300  1
  C  C1  1  0.76172100  0.62003000  0.07130700  1
  C  C2  1  0.73827900  0.87997000  0.57130700  1
  C  C3  1  0.73827900  0.12003000  0.92869300  1
  C  C4  1  0.26172100  0.87997000  0.07130700  1
  C  C5  1  0.26172100  0.12003000  0.42869300  1
  C  C6  1  0.23827900  0.37997000  0.92869300  1
  C  C7  1  0.23827900  0.62003000  0.57130700  1
  C  C8  1  0.72744400  0.00000000  0.25000000  1
  C  C9  1  0.77255600  0.50000000  0.75000000  1
  C  C10  1  0.27255600  0.00000000  0.75000000  1
  C  C11  1  0.22744400  0.50000000  0.25000000  1
  C  C12  1  0.52064100  0.30585900  0.17865900  1
  C  C13  1  0.52064100  0.69414100  0.32134100  1
  C  C14  1  0.97935900  0.80585900  0.82134100  1
  C  C15  1  0.97935900  0.19414100  0.67865900  1
  C  C16  1  0.47935900  0.69414100  0.82134100  1
  C  C17  1  0.47935900  0.30585900  0.67865900  1
  C  C18  1  0.02064100  0.19414100  0.17865900  1
  C  C19  1  0.02064100  0.80585900  0.32134100  1
  Ni  Ni20  1  0.61854700  0.20310800  0.14384900  1
  Ni  Ni21  1  0.61854700  0.79689200  0.35615100  1
  Ni  Ni22  1  0.88145300  0.70310800  0.85615100  1
  Ni  Ni23  1  0.88145300  0.29689200  0.64384900  1
  Ni  Ni24  1  0.38145300  0.79689200  0.85615100  1
  Ni  Ni25  1  0.38145300  0.20310800  0.64384900  1
  Ni  Ni26  1  0.11854700  0.29689200  0.14384900  1
  Ni  Ni27  1  0.11854700  0.70310800  0.35615100  1
  Ni  Ni28  1  0.47851000  0.40911200  0.11274800  1
  Ni  Ni29  1  0.47851000  0.59088800  0.38725200  1
  Ni  Ni30  1  0.02149000  0.90911200  0.88725200  1
  Ni  Ni31  1  0.02149000  0.09088800  0.61274800  1
  Ni  Ni32  1  0.52149000  0.59088800  0.88725200  1
  Ni  Ni33  1  0.52149000  0.40911200  0.61274800  1
  Ni  Ni34  1  0.97851000  0.09088800  0.11274800  1
  Ni  Ni35  1  0.97851000  0.90911200  0.38725200  1
  Ni  Ni36  1  0.95924300  0.81329000  0.21815000  1
  Ni  Ni37  1  0.95924300  0.18671000  0.28185000  1
  Ni  Ni38  1  0.54075700  0.31329000  0.78185000  1
  Ni  Ni39  1  0.54075700  0.68671000  0.71815000  1
  Ni  Ni40  1  0.04075700  0.18671000  0.78185000  1
  Ni  Ni41  1  0.04075700  0.81329000  0.71815000  1
  Ni  Ni42  1  0.45924300  0.68671000  0.21815000  1
  Ni  Ni43  1  0.45924300  0.31329000  0.28185000  1
  Cu  Cu44  1  0.89722500  0.50000000  0.25000000  1
  Cu  Cu45  1  0.60277500  0.00000000  0.75000000  1
  Cu  Cu46  1  0.10277500  0.50000000  0.75000000  1
  Cu  Cu47  1  0.39722500  0.00000000  0.25000000  1
  Cu  Cu48  1  0.64918500  0.90476300  0.07572400  1
  Cu  Cu49  1  0.64918500  0.09523700  0.42427600  1
  Cu  Cu50  1  0.85081500  0.40476300  0.92427600  1
  Cu  Cu51  1  0.85081500  0.59523700  0.57572400  1
  Cu  Cu52  1  0.35081500  0.09523700  0.92427600  1
  Cu  Cu53  1  0.35081500  0.90476300  0.57572400  1
  Cu  Cu54  1  0.14918500  0.59523700  0.07572400  1
  Cu  Cu55  1  0.14918500  0.40476300  0.42427600  1
