# generated using pymatgen
data_Cu7Ni5C29
_symmetry_space_group_name_H-M   'P 1'
_cell_length_a   7.86660400
_cell_length_b   7.90733770
_cell_length_c   9.36778188
_cell_angle_alpha   90.37916013
_cell_angle_beta   90.94260695
_cell_angle_gamma   90.98888260
_symmetry_Int_Tables_number   1
_chemical_formula_structural   Cu7Ni5C29
_chemical_formula_sum   'Cu7 Ni5 C29'
_cell_volume   582.53300210
_cell_formula_units_Z   1
loop_
 _symmetry_equiv_pos_site_id
 _symmetry_equiv_pos_as_xyz
  1  'x, y, z'
loop_
 _atom_site_type_symbol
 _atom_site_label
 _atom_site_symmetry_multiplicity
 _atom_site_fract_x
 _atom_site_fract_y
 _atom_site_fract_z
 _atom_site_occupancy
  C  C0  1  0.42248200  0.29371500  0.74255400  1
  C  C1  1  0.51972700  0.76531500  0.24281100  1
  C  C2  1  0.74898600  0.54425000  0.26642300  1
  C  C3  1  0.77525300  0.99478900  0.99759000  1
  C  C4  1  0.01357000  0.25732800  0.02223700  1
  Ni  Ni5  1  0.38228700  0.15268000  0.99681400  1
  Ni  Ni6  1  0.41033300  0.59488800  0.00374600  1
  Ni  Ni7  1  0.57330800  0.41955800  0.50445200  1
  Ni  Ni8  1  0.67401000  0.12404000  0.25506200  1
  Ni  Ni9  1  0.84402100  0.62036600  0.98990100  1
  Cu  Cu10  1  0.08427200  0.07081400  0.25552200  1
  Cu  Cu11  1  0.12879600  0.67487000  0.26342500  1
  Cu  Cu12  1  0.15069800  0.37295700  0.48941500  1
  Cu  Cu13  1  0.31803200  0.88259700  0.74075100  1
  Cu  Cu14  1  0.61618100  0.83619400  0.51664000  1
  Cu  Cu15  1  0.87278300  0.31809400  0.73884600  1
  Cu  Cu16  1  0.92591000  0.92126600  0.73872800  1
  C  C17  1  0.01376800  0.36860000  0.61953300  1
  C  C18  1  0.10632400  0.87568400  0.31130100  1
  C  C19  1  0.12511100  0.55179100  0.40472400  1
  C  C20  1  0.11597900  0.88181600  0.68495400  1
  C  C21  1  0.11096300  0.20478500  0.38918300  1
  C  C22  1  0.20165700  0.12744800  0.12261000  1
  C  C23  1  0.30788400  0.66011400  0.18140000  1
  C  C24  1  0.34944600  0.73545500  0.85540900  1
  C  C25  1  0.34462900  0.36710800  0.55395900  1
  C  C26  1  0.36174200  0.06944900  0.80641900  1
  C  C27  1  0.37799000  0.37701100  0.93475100  1
  C  C28  1  0.44046700  0.85370500  0.60296900  1
  C  C29  1  0.57438200  0.06122700  0.07947200  1
  C  C30  1  0.63040100  0.64468400  0.44944600  1
  C  C31  1  0.60230400  0.94870300  0.37278600  1
  C  C32  1  0.63559200  0.63473500  0.08382800  1
  C  C33  1  0.65540400  0.33678700  0.33380500  1
  C  C34  1  0.67973100  0.34093300  0.67633200  1
  C  C35  1  0.78635800  0.88801400  0.61100500  1
  C  C36  1  0.87440200  0.81923000  0.88324500  1
  C  C37  1  0.89676600  0.09703300  0.17769700  1
  C  C38  1  0.90474600  0.42054900  0.89018300  1
  C  C39  1  0.90620900  0.12081900  0.79529500  1
  C  C40  1  0.96653800  0.60706800  0.16592200  1
