# generated using pymatgen
data_Cu2Ni3C8
_symmetry_space_group_name_H-M   'P 1'
_cell_length_a   5.16432700
_cell_length_b   8.94192511
_cell_length_c   13.65960987
_cell_angle_alpha   106.39940245
_cell_angle_beta   100.88504131
_cell_angle_gamma   90.63612842
_symmetry_Int_Tables_number   1
_chemical_formula_structural   Cu2Ni3C8
_chemical_formula_sum   'Cu6 Ni9 C24'
_cell_volume   592.84682142
_cell_formula_units_Z   3
loop_
 _symmetry_equiv_pos_site_id
 _symmetry_equiv_pos_as_xyz
  1  'x, y, z'
loop_
 _atom_site_type_symbol
 _atom_site_label
 _atom_site_symmetry_multiplicity
 _atom_site_fract_x
 _atom_site_fract_y
 _atom_site_fract_z
 _atom_site_occupancy
  Ni  Ni0  1  0.03295400  0.01327300  0.00073300  1
  Ni  Ni1  1  0.77171100  0.72771600  0.51155900  1
  Ni  Ni2  1  0.77997200  0.27034200  0.82025600  1
  Ni  Ni3  1  0.71656600  0.53701500  0.67173700  1
  Ni  Ni4  1  0.10242900  0.74846800  0.14881400  1
  Ni  Ni5  1  0.37946300  0.47577600  0.95742100  1
  Ni  Ni6  1  0.30711800  0.74538600  0.81147800  1
  Ni  Ni7  1  0.10485500  0.17287300  0.46730300  1
  Ni  Ni8  1  0.02857000  0.44326700  0.31360500  1
  Cu  Cu9  1  0.95751800  0.38115800  0.06286400  1
  Cu  Cu10  1  0.55162700  0.84109700  0.04773100  1
  Cu  Cu11  1  0.81424800  0.89279600  0.75156300  1
  Cu  Cu12  1  0.58310200  0.35737000  0.42019700  1
  Cu  Cu13  1  0.19586800  0.80470300  0.39724000  1
  Cu  Cu14  1  0.22167100  0.36806500  0.71708900  1
  C  C15  1  0.99723500  0.65701700  0.40587500  1
  C  C16  1  0.87483500  0.30593600  0.38586800  1
  C  C17  1  0.02623300  0.95834200  0.41964900  1
  C  C18  1  0.86919700  0.41475000  0.17453400  1
  C  C19  1  0.94879900  0.83008400  0.64905200  1
  C  C20  1  0.68536500  0.98059000  0.01508700  1
  C  C21  1  0.74689300  0.78826100  0.13821100  1
  C  C22  1  0.66099500  0.52009500  0.51951400  1
  C  C23  1  0.45055900  0.22087800  0.45468400  1
  C  C24  1  0.70929600  0.35973600  0.96033900  1
  C  C25  1  0.59942600  0.75042300  0.74116900  1
  C  C26  1  0.38475800  0.40403300  0.32689900  1
  C  C27  1  0.55190600  0.38510200  0.74054500  1
  C  C28  1  0.68777700  0.06101000  0.77048300  1
  C  C29  1  0.46668300  0.82288900  0.48264900  1
  C  C30  1  0.25862300  0.74984800  0.28029200  1
  C  C31  1  0.26388700  0.89742600  0.08589600  1
  C  C32  1  0.12034100  0.22603700  0.02902200  1
  C  C33  1  0.13794200  0.53723300  0.06266600  1
  C  C34  1  0.45959400  0.68881000  0.94523100  1
  C  C35  1  0.08400800  0.24474600  0.60788800  1
  C  C36  1  0.14068800  0.32382600  0.81924500  1
  C  C37  1  0.11194200  0.53946900  0.72068300  1
  C  C38  1  0.04691100  0.90489900  0.85810100  1
