# generated using pymatgen
data_Cu(NiC)3
_symmetry_space_group_name_H-M   'P 1'
_cell_length_a   9.27753835
_cell_length_b   9.27753835
_cell_length_c   4.49551900
_cell_angle_alpha   90.00000000
_cell_angle_beta   90.00000000
_cell_angle_gamma   120.00000252
_symmetry_Int_Tables_number   1
_chemical_formula_structural   Cu(NiC)3
_chemical_formula_sum   'Cu3 Ni9 C9'
_cell_volume   335.10119375
_cell_formula_units_Z   3
loop_
 _symmetry_equiv_pos_site_id
 _symmetry_equiv_pos_as_xyz
  1  'x, y, z'
loop_
 _atom_site_type_symbol
 _atom_site_label
 _atom_site_symmetry_multiplicity
 _atom_site_fract_x
 _atom_site_fract_y
 _atom_site_fract_z
 _atom_site_occupancy
  C  C0  1  0.00000000  0.72377600  0.00000000  1
  C  C1  1  0.27622400  0.27622400  0.00000000  1
  C  C2  1  0.72377600  0.00000000  0.00000000  1
  C  C3  1  0.60940800  0.60940800  0.50000000  1
  C  C4  1  0.39059200  0.00000000  0.50000000  1
  C  C5  1  0.00000000  0.39059200  0.50000000  1
  C  C6  1  0.33333300  0.66666700  0.50000000  1
  C  C7  1  0.00000000  0.00000000  0.50000000  1
  C  C8  1  0.66666700  0.33333300  0.50000000  1
  Ni  Ni9  1  0.86042800  0.86042800  0.50000000  1
  Ni  Ni10  1  0.13957200  0.00000000  0.50000000  1
  Ni  Ni11  1  0.00000000  0.13957200  0.50000000  1
  Ni  Ni12  1  0.48469400  0.79287300  0.50000000  1
  Ni  Ni13  1  0.20712700  0.69182100  0.50000000  1
  Ni  Ni14  1  0.30817900  0.51530600  0.50000000  1
  Ni  Ni15  1  0.69182100  0.20712700  0.50000000  1
  Ni  Ni16  1  0.51530600  0.30817900  0.50000000  1
  Ni  Ni17  1  0.79287300  0.48469400  0.50000000  1
  Cu  Cu18  1  0.61340400  0.61340400  0.00000000  1
  Cu  Cu19  1  0.38659600  0.00000000  0.00000000  1
  Cu  Cu20  1  0.00000000  0.38659600  0.00000000  1
