# generated using pymatgen
data_CuNiC5
_symmetry_space_group_name_H-M   'P 1'
_cell_length_a   9.80926226
_cell_length_b   9.80926226
_cell_length_c   8.63062651
_cell_angle_alpha   73.16334637
_cell_angle_beta   73.16334637
_cell_angle_gamma   117.26634121
_symmetry_Int_Tables_number   1
_chemical_formula_structural   CuNiC5
_chemical_formula_sum   'Cu8 Ni8 C40'
_cell_volume   613.33527797
_cell_formula_units_Z   8
loop_
 _symmetry_equiv_pos_site_id
 _symmetry_equiv_pos_as_xyz
  1  'x, y, z'
loop_
 _atom_site_type_symbol
 _atom_site_label
 _atom_site_symmetry_multiplicity
 _atom_site_fract_x
 _atom_site_fract_y
 _atom_site_fract_z
 _atom_site_occupancy
  C  C0  1  0.35497400  0.56007300  0.03263000  1
  C  C1  1  0.56007300  0.35497300  0.53263000  1
  C  C2  1  0.16771000  0.87785200  0.50856300  1
  C  C3  1  0.87785200  0.16771000  0.00856300  1
  C  C4  1  0.87334200  0.19654800  0.37186800  1
  C  C5  1  0.41870000  0.78251400  0.27776900  1
  C  C6  1  0.19654800  0.87334200  0.87186800  1
  C  C7  1  0.78251400  0.41870000  0.77776900  1
  Ni  Ni8  1  0.17166300  0.13913500  0.16725800  1
  Ni  Ni9  1  0.02526400  0.57710900  0.31617300  1
  Ni  Ni10  1  0.13913500  0.17166300  0.66725800  1
  Ni  Ni11  1  0.58840600  0.18560900  0.24620900  1
  Ni  Ni12  1  0.57710900  0.02526400  0.81617300  1
  Ni  Ni13  1  0.18560900  0.58840600  0.74620900  1
  Ni  Ni14  1  0.64822500  0.70553500  0.18262300  1
  Ni  Ni15  1  0.70553500  0.64822500  0.68262300  1
  Cu  Cu16  1  0.45209300  0.31469100  0.09920600  1
  Cu  Cu17  1  0.24395000  0.33474900  0.37347000  1
  Cu  Cu18  1  0.31469100  0.45209300  0.59920600  1
  Cu  Cu19  1  0.33474900  0.24395000  0.87347000  1
  Cu  Cu20  1  0.81497400  0.63869400  0.24462100  1
  Cu  Cu21  1  0.91286300  0.86258700  0.41012000  1
  Cu  Cu22  1  0.63869400  0.81497400  0.74462100  1
  Cu  Cu23  1  0.86258700  0.91286300  0.91012000  1
  C  C24  1  0.02757900  0.16863500  0.19404300  1
  C  C25  1  0.23078000  0.12703300  0.98222800  1
  C  C26  1  0.10730100  0.96975300  0.32672800  1
  C  C27  1  0.44713500  0.99743700  0.29225100  1
  C  C28  1  0.34081900  0.31080600  0.12974300  1
  C  C29  1  0.16863500  0.02757900  0.69404300  1
  C  C30  1  0.12703300  0.23078000  0.48222800  1
  C  C31  1  0.02467700  0.69126100  0.14310700  1
  C  C32  1  0.96975300  0.10730100  0.82672800  1
  C  C33  1  0.05391300  0.44259800  0.27744400  1
  C  C34  1  0.63420900  0.32143400  0.05112500  1
  C  C35  1  0.76098400  0.19590500  0.22152300  1
  C  C36  1  0.52932500  0.23304000  0.39024300  1
  C  C37  1  0.99743700  0.44713500  0.79225100  1
  C  C38  1  0.17538900  0.69990200  0.33746900  1
  C  C39  1  0.31080600  0.34081900  0.62974300  1
  C  C40  1  0.45339200  0.58383700  0.23720400  1
  C  C41  1  0.69126100  0.02467700  0.64310700  1
  C  C42  1  0.44259800  0.05391300  0.77744400  1
  C  C43  1  0.32143400  0.63420900  0.55112500  1
  C  C44  1  0.79367400  0.77673500  0.98456700  1
  C  C45  1  0.19590500  0.76098400  0.72152300  1
  C  C46  1  0.68947000  0.59774500  0.31201800  1
  C  C47  1  0.23304000  0.52932500  0.89024300  1
  C  C48  1  0.69990200  0.17538900  0.83746900  1
  C  C49  1  0.84674700  0.47309600  0.49425200  1
  C  C50  1  0.58383700  0.45339200  0.73720400  1
  C  C51  1  0.66920700  0.86510500  0.20265100  1
  C  C52  1  0.77673500  0.79367400  0.48456700  1
  C  C53  1  0.59774500  0.68947000  0.81201800  1
  C  C54  1  0.47309600  0.84674700  0.99425200  1
  C  C55  1  0.86510500  0.66920700  0.70265100  1
