# generated using pymatgen
data_CuNi2C11
_symmetry_space_group_name_H-M   'P 1'
_cell_length_a   5.55838422
_cell_length_b   5.55838422
_cell_length_c   8.03265800
_cell_angle_alpha   90.00000000
_cell_angle_beta   90.00000000
_cell_angle_gamma   120.00000260
_symmetry_Int_Tables_number   1
_chemical_formula_structural   CuNi2C11
_chemical_formula_sum   'Cu1 Ni2 C11'
_cell_volume   214.92504407
_cell_formula_units_Z   1
loop_
 _symmetry_equiv_pos_site_id
 _symmetry_equiv_pos_as_xyz
  1  'x, y, z'
loop_
 _atom_site_type_symbol
 _atom_site_label
 _atom_site_symmetry_multiplicity
 _atom_site_fract_x
 _atom_site_fract_y
 _atom_site_fract_z
 _atom_site_occupancy
  C  C0  1  0.00000000  0.00000000  0.50000000  1
  Ni  Ni1  1  0.33333300  0.66666700  0.24849800  1
  Ni  Ni2  1  0.66666700  0.33333300  0.75150200  1
  Cu  Cu3  1  0.00000000  0.00000000  0.00000000  1
  C  C4  1  0.33333300  0.66666700  0.78262200  1
  C  C5  1  0.66666700  0.33333300  0.21737800  1
  C  C6  1  0.36108500  0.18054200  0.15081200  1
  C  C7  1  0.81945800  0.63891500  0.15081200  1
  C  C8  1  0.81945800  0.18054200  0.15081200  1
  C  C9  1  0.63891500  0.81945800  0.84918800  1
  C  C10  1  0.18054200  0.36108500  0.84918800  1
  C  C11  1  0.18054200  0.81945800  0.84918800  1
  C  C12  1  0.66666700  0.33333300  0.40761000  1
  C  C13  1  0.33333300  0.66666700  0.59239000  1
