# generated using pymatgen
data_Cu8Ni2C
_symmetry_space_group_name_H-M   'P 1'
_cell_length_a   9.23975800
_cell_length_b   9.39351700
_cell_length_c   13.79438300
_cell_angle_alpha   90.00000000
_cell_angle_beta   90.00000000
_cell_angle_gamma   90.00000000
_symmetry_Int_Tables_number   1
_chemical_formula_structural   Cu8Ni2C
_chemical_formula_sum   'Cu64 Ni16 C8'
_cell_volume   1197.26724821
_cell_formula_units_Z   8
loop_
 _symmetry_equiv_pos_site_id
 _symmetry_equiv_pos_as_xyz
  1  'x, y, z'
loop_
 _atom_site_type_symbol
 _atom_site_label
 _atom_site_symmetry_multiplicity
 _atom_site_fract_x
 _atom_site_fract_y
 _atom_site_fract_z
 _atom_site_occupancy
  C  C0  1  0.89495200  0.85882000  0.12664900  1
  C  C1  1  0.60504800  0.85882000  0.62664900  1
  C  C2  1  0.39495200  0.64118000  0.12664900  1
  C  C3  1  0.10504800  0.64118000  0.62664900  1
  C  C4  1  0.89495200  0.35882000  0.37335100  1
  C  C5  1  0.60504800  0.35882000  0.87335100  1
  C  C6  1  0.39495200  0.14118000  0.37335100  1
  C  C7  1  0.10504800  0.14118000  0.87335100  1
  Ni  Ni8  1  0.93402000  0.92533600  0.72129600  1
  Ni  Ni9  1  0.56598000  0.92533600  0.22129600  1
  Ni  Ni10  1  0.31175500  0.84330800  0.48709100  1
  Ni  Ni11  1  0.18824500  0.84330800  0.98709100  1
  Ni  Ni12  1  0.81175500  0.65669200  0.48709100  1
  Ni  Ni13  1  0.68824500  0.65669200  0.98709100  1
  Ni  Ni14  1  0.06598000  0.57466400  0.22129600  1
  Ni  Ni15  1  0.43402000  0.57466400  0.72129600  1
  Ni  Ni16  1  0.56598000  0.42533600  0.27870400  1
  Ni  Ni17  1  0.93402000  0.42533600  0.77870400  1
  Ni  Ni18  1  0.31175500  0.34330800  0.01290900  1
  Ni  Ni19  1  0.18824500  0.34330800  0.51290900  1
  Ni  Ni20  1  0.81175500  0.15669200  0.01290900  1
  Ni  Ni21  1  0.68824500  0.15669200  0.51290900  1
  Ni  Ni22  1  0.43402000  0.07466400  0.77870400  1
  Ni  Ni23  1  0.06598000  0.07466400  0.27870400  1
  Cu  Cu24  1  0.30357800  0.00408900  0.47281600  1
  Cu  Cu25  1  0.19642200  0.00408900  0.97281600  1
  Cu  Cu26  1  0.01171500  0.98545000  0.35420700  1
  Cu  Cu27  1  0.48828500  0.98545000  0.85420700  1
  Cu  Cu28  1  0.52971500  0.97200600  0.32229300  1
  Cu  Cu29  1  0.97028500  0.97200600  0.82229300  1
  Cu  Cu30  1  0.73096200  0.91343400  0.22087400  1
  Cu  Cu31  1  0.76903800  0.91343400  0.72087400  1
  Cu  Cu32  1  0.27538400  0.81833300  0.07756700  1
  Cu  Cu33  1  0.22461600  0.81833300  0.57756700  1
  Cu  Cu34  1  0.03223600  0.80971100  0.01515500  1
  Cu  Cu35  1  0.46776400  0.80971100  0.51515500  1
  Cu  Cu36  1  0.98809600  0.77129100  0.71597600  1
  Cu  Cu37  1  0.51190400  0.77129100  0.21597600  1
  Cu  Cu38  1  0.26921800  0.76346900  0.40395600  1
  Cu  Cu39  1  0.23078200  0.76346900  0.90395600  1
  Cu  Cu40  1  0.76921800  0.73653100  0.40395600  1
  Cu  Cu41  1  0.73078200  0.73653100  0.90395600  1
  Cu  Cu42  1  0.01190400  0.72870900  0.21597600  1
  Cu  Cu43  1  0.48809600  0.72870900  0.71597600  1
  Cu  Cu44  1  0.96776400  0.69028900  0.51515500  1
  Cu  Cu45  1  0.53223600  0.69028900  0.01515500  1
  Cu  Cu46  1  0.77538400  0.68166700  0.07756700  1
  Cu  Cu47  1  0.72461600  0.68166700  0.57756700  1
  Cu  Cu48  1  0.23096200  0.58656600  0.22087400  1
  Cu  Cu49  1  0.26903800  0.58656600  0.72087400  1
  Cu  Cu50  1  0.47028500  0.52799400  0.82229300  1
  Cu  Cu51  1  0.02971500  0.52799400  0.32229300  1
  Cu  Cu52  1  0.51171500  0.51455000  0.35420700  1
  Cu  Cu53  1  0.98828500  0.51455000  0.85420700  1
  Cu  Cu54  1  0.80357800  0.49591100  0.47281600  1
  Cu  Cu55  1  0.69642200  0.49591100  0.97281600  1
  Cu  Cu56  1  0.30357800  0.50408900  0.02718400  1
  Cu  Cu57  1  0.19642200  0.50408900  0.52718400  1
  Cu  Cu58  1  0.48828500  0.48545000  0.64579300  1
  Cu  Cu59  1  0.01171500  0.48545000  0.14579300  1
  Cu  Cu60  1  0.52971500  0.47200600  0.17770700  1
  Cu  Cu61  1  0.97028500  0.47200600  0.67770700  1
  Cu  Cu62  1  0.73096200  0.41343400  0.27912600  1
  Cu  Cu63  1  0.76903800  0.41343400  0.77912600  1
  Cu  Cu64  1  0.27538400  0.31833300  0.42243300  1
  Cu  Cu65  1  0.22461600  0.31833300  0.92243300  1
  Cu  Cu66  1  0.46776400  0.30971100  0.98484500  1
  Cu  Cu67  1  0.03223600  0.30971100  0.48484500  1
  Cu  Cu68  1  0.51190400  0.27129100  0.28402400  1
  Cu  Cu69  1  0.98809600  0.27129100  0.78402400  1
  Cu  Cu70  1  0.26921800  0.26346900  0.09604400  1
  Cu  Cu71  1  0.23078200  0.26346900  0.59604400  1
  Cu  Cu72  1  0.76921800  0.23653100  0.09604400  1
  Cu  Cu73  1  0.73078200  0.23653100  0.59604400  1
  Cu  Cu74  1  0.48809600  0.22870900  0.78402400  1
  Cu  Cu75  1  0.01190400  0.22870900  0.28402400  1
  Cu  Cu76  1  0.53223600  0.19028900  0.48484500  1
  Cu  Cu77  1  0.96776400  0.19028900  0.98484500  1
  Cu  Cu78  1  0.77538400  0.18166700  0.42243300  1
  Cu  Cu79  1  0.72461600  0.18166700  0.92243300  1
  Cu  Cu80  1  0.26903800  0.08656600  0.77912600  1
  Cu  Cu81  1  0.23096200  0.08656600  0.27912600  1
  Cu  Cu82  1  0.47028500  0.02799400  0.67770700  1
  Cu  Cu83  1  0.02971500  0.02799400  0.17770700  1
  Cu  Cu84  1  0.98828500  0.01455000  0.64579300  1
  Cu  Cu85  1  0.51171500  0.01455000  0.14579300  1
  Cu  Cu86  1  0.80357800  0.99591100  0.02718400  1
  Cu  Cu87  1  0.69642200  0.99591100  0.52718400  1
