# generated using pymatgen
data_Cu3Ni3C4
_symmetry_space_group_name_H-M   'P 1'
_cell_length_a   8.71567615
_cell_length_b   8.71567615
_cell_length_c   5.43335000
_cell_angle_alpha   90.00000000
_cell_angle_beta   90.00000000
_cell_angle_gamma   120.00000114
_symmetry_Int_Tables_number   1
_chemical_formula_structural   Cu3Ni3C4
_chemical_formula_sum   'Cu6 Ni6 C8'
_cell_volume   357.43779967
_cell_formula_units_Z   2
loop_
 _symmetry_equiv_pos_site_id
 _symmetry_equiv_pos_as_xyz
  1  'x, y, z'
loop_
 _atom_site_type_symbol
 _atom_site_label
 _atom_site_symmetry_multiplicity
 _atom_site_fract_x
 _atom_site_fract_y
 _atom_site_fract_z
 _atom_site_occupancy
  C  C0  1  0.30745200  0.93461300  0.75000000  1
  C  C1  1  0.06538700  0.37283900  0.75000000  1
  C  C2  1  0.93461300  0.62716100  0.25000000  1
  C  C3  1  0.69254800  0.06538700  0.25000000  1
  C  C4  1  0.62716100  0.69254800  0.75000000  1
  C  C5  1  0.37283900  0.30745200  0.25000000  1
  C  C6  1  0.66666700  0.33333300  0.75000000  1
  C  C7  1  0.33333300  0.66666700  0.25000000  1
  Ni  Ni8  1  0.45140300  0.30292500  0.75000000  1
  Ni  Ni9  1  0.69707500  0.14847800  0.75000000  1
  Ni  Ni10  1  0.30292500  0.85152200  0.25000000  1
  Ni  Ni11  1  0.54859700  0.69707500  0.25000000  1
  Ni  Ni12  1  0.85152200  0.54859700  0.75000000  1
  Ni  Ni13  1  0.14847800  0.45140300  0.25000000  1
  Cu  Cu14  1  0.29558700  0.27247900  0.75000000  1
  Cu  Cu15  1  0.72752100  0.02310800  0.75000000  1
  Cu  Cu16  1  0.27247900  0.97689200  0.25000000  1
  Cu  Cu17  1  0.02310800  0.29558700  0.25000000  1
  Cu  Cu18  1  0.70441300  0.72752100  0.25000000  1
  Cu  Cu19  1  0.97689200  0.70441300  0.75000000  1
