# generated using pymatgen
data_Cu4Ni4C7
_symmetry_space_group_name_H-M   'P 1'
_cell_length_a   11.59697400
_cell_length_b   11.92973300
_cell_length_c   16.33695800
_cell_angle_alpha   90.00000000
_cell_angle_beta   90.00000000
_cell_angle_gamma   90.00000000
_symmetry_Int_Tables_number   1
_chemical_formula_structural   Cu4Ni4C7
_chemical_formula_sum   'Cu32 Ni32 C56'
_cell_volume   2260.19859095
_cell_formula_units_Z   8
loop_
 _symmetry_equiv_pos_site_id
 _symmetry_equiv_pos_as_xyz
  1  'x, y, z'
loop_
 _atom_site_type_symbol
 _atom_site_label
 _atom_site_symmetry_multiplicity
 _atom_site_fract_x
 _atom_site_fract_y
 _atom_site_fract_z
 _atom_site_occupancy
  C  C0  1  0.73043600  0.16746300  0.47754900  1
  C  C1  1  0.23043600  0.33253700  0.52245100  1
  C  C2  1  0.26956400  0.66746300  0.02245100  1
  C  C3  1  0.76956400  0.83253700  0.97754900  1
  C  C4  1  0.26956400  0.83253700  0.52245100  1
  C  C5  1  0.76956400  0.66746300  0.47754900  1
  C  C6  1  0.73043600  0.33253700  0.97754900  1
  C  C7  1  0.23043600  0.16746300  0.02245100  1
  C  C8  1  0.77036100  0.08362800  0.29424500  1
  C  C9  1  0.27036100  0.41637200  0.70575500  1
  C  C10  1  0.22963900  0.58362800  0.20575500  1
  C  C11  1  0.72963900  0.91637200  0.79424500  1
  C  C12  1  0.22963900  0.91637200  0.70575500  1
  C  C13  1  0.72963900  0.58362800  0.29424500  1
  C  C14  1  0.77036100  0.41637200  0.79424500  1
  C  C15  1  0.27036100  0.08362800  0.20575500  1
  C  C16  1  0.69804400  0.15214800  0.22148700  1
  C  C17  1  0.19804400  0.34785200  0.77851300  1
  C  C18  1  0.30195600  0.65214800  0.27851300  1
  C  C19  1  0.80195600  0.84785200  0.72148700  1
  C  C20  1  0.30195600  0.84785200  0.77851300  1
  C  C21  1  0.80195600  0.65214800  0.22148700  1
  C  C22  1  0.69804400  0.34785200  0.72148700  1
  C  C23  1  0.19804400  0.15214800  0.27851300  1
  C  C24  1  0.62572300  0.07827000  0.28497800  1
  C  C25  1  0.12572300  0.42173000  0.71502200  1
  C  C26  1  0.37427700  0.57827000  0.21502200  1
  C  C27  1  0.87427700  0.92173000  0.78497800  1
  C  C28  1  0.37427700  0.92173000  0.71502200  1
  C  C29  1  0.87427700  0.57827000  0.28497800  1
  C  C30  1  0.62572300  0.42173000  0.78497800  1
  C  C31  1  0.12572300  0.07827000  0.21502200  1
  C  C32  1  0.68277800  0.08019200  0.37546000  1
  C  C33  1  0.18277800  0.41980800  0.62454000  1
  C  C34  1  0.31722200  0.58019200  0.12454000  1
  C  C35  1  0.81722200  0.91980800  0.87546000  1
  C  C36  1  0.31722200  0.91980800  0.62454000  1
  C  C37  1  0.81722200  0.58019200  0.37546000  1
  C  C38  1  0.68277800  0.41980800  0.87546000  1
  C  C39  1  0.18277800  0.08019200  0.12454000  1
  C  C40  1  0.80535600  0.17948200  0.36433200  1
  C  C41  1  0.30535600  0.32051800  0.63566800  1
  C  C42  1  0.19464400  0.67948200  0.13566800  1
  C  C43  1  0.69464400  0.82051800  0.86433200  1
  C  C44  1  0.19464400  0.82051800  0.63566800  1
  C  C45  1  0.69464400  0.67948200  0.36433200  1
  C  C46  1  0.80535600  0.32051800  0.86433200  1
  C  C47  1  0.30535600  0.17948200  0.13566800  1
  C  C48  1  0.79721600  0.21820900  0.26946700  1
  C  C49  1  0.29721600  0.28179100  0.73053300  1
  C  C50  1  0.20278400  0.71820900  0.23053300  1
  C  C51  1  0.70278400  0.78179100  0.76946700  1
  C  C52  1  0.20278400  0.78179100  0.73053300  1
  C  C53  1  0.70278400  0.71820900  0.26946700  1
  C  C54  1  0.79721600  0.28179100  0.76946700  1
  C  C55  1  0.29721600  0.21820900  0.23053300  1
  Ni  Ni56  1  0.81297100  0.27594000  0.52551900  1
  Ni  Ni57  1  0.31297100  0.22406000  0.47448100  1
  Ni  Ni58  1  0.18702900  0.77594000  0.97448100  1
  Ni  Ni59  1  0.68702900  0.72406000  0.02551900  1
  Ni  Ni60  1  0.18702900  0.72406000  0.47448100  1
  Ni  Ni61  1  0.68702900  0.77594000  0.52551900  1
  Ni  Ni62  1  0.81297100  0.22406000  0.02551900  1
  Ni  Ni63  1  0.31297100  0.27594000  0.97448100  1
  Ni  Ni64  1  0.61863000  0.12755000  0.54856600  1
  Ni  Ni65  1  0.11863000  0.37245000  0.45143400  1
  Ni  Ni66  1  0.38137000  0.62755000  0.95143400  1
  Ni  Ni67  1  0.88137000  0.87245000  0.04856600  1
  Ni  Ni68  1  0.38137000  0.87245000  0.45143400  1
  Ni  Ni69  1  0.88137000  0.62755000  0.54856600  1
  Ni  Ni70  1  0.61863000  0.37245000  0.04856600  1
  Ni  Ni71  1  0.11863000  0.12755000  0.95143400  1
  Ni  Ni72  1  0.63480500  0.26440300  0.42788000  1
  Ni  Ni73  1  0.13480500  0.23559700  0.57212000  1
  Ni  Ni74  1  0.36519500  0.76440300  0.07212000  1
  Ni  Ni75  1  0.86519500  0.73559700  0.92788000  1
  Ni  Ni76  1  0.36519500  0.73559700  0.57212000  1
  Ni  Ni77  1  0.86519500  0.76440300  0.42788000  1
  Ni  Ni78  1  0.63480500  0.23559700  0.92788000  1
  Ni  Ni79  1  0.13480500  0.26440300  0.07212000  1
  Ni  Ni80  1  0.82499000  0.05687200  0.51445000  1
  Ni  Ni81  1  0.32499000  0.44312800  0.48555000  1
  Ni  Ni82  1  0.17501000  0.55687200  0.98555000  1
  Ni  Ni83  1  0.67501000  0.94312800  0.01445000  1
  Ni  Ni84  1  0.17501000  0.94312800  0.48555000  1
  Ni  Ni85  1  0.67501000  0.55687200  0.51445000  1
  Ni  Ni86  1  0.82499000  0.44312800  0.01445000  1
  Ni  Ni87  1  0.32499000  0.05687200  0.98555000  1
  Cu  Cu88  1  0.86596100  0.34847400  0.55364100  1
  Cu  Cu89  1  0.36596100  0.15152600  0.44635900  1
  Cu  Cu90  1  0.13403900  0.84847400  0.94635900  1
  Cu  Cu91  1  0.63403900  0.65152600  0.05364100  1
  Cu  Cu92  1  0.13403900  0.65152600  0.44635900  1
  Cu  Cu93  1  0.63403900  0.84847400  0.55364100  1
  Cu  Cu94  1  0.86596100  0.15152600  0.05364100  1
  Cu  Cu95  1  0.36596100  0.34847400  0.94635900  1
  Cu  Cu96  1  0.54375200  0.10516000  0.59196000  1
  Cu  Cu97  1  0.04375200  0.39484000  0.40804000  1
  Cu  Cu98  1  0.45624800  0.60516000  0.90804000  1
  Cu  Cu99  1  0.95624800  0.89484000  0.09196000  1
  Cu  Cu100  1  0.45624800  0.89484000  0.40804000  1
  Cu  Cu101  1  0.95624800  0.60516000  0.59196000  1
  Cu  Cu102  1  0.54375200  0.39484000  0.09196000  1
  Cu  Cu103  1  0.04375200  0.10516000  0.90804000  1
  Cu  Cu104  1  0.57309600  0.32611400  0.39550100  1
  Cu  Cu105  1  0.07309600  0.17388600  0.60449900  1
  Cu  Cu106  1  0.42690400  0.82611400  0.10449900  1
  Cu  Cu107  1  0.92690400  0.67388600  0.89550100  1
  Cu  Cu108  1  0.42690400  0.67388600  0.60449900  1
  Cu  Cu109  1  0.92690400  0.82611400  0.39550100  1
  Cu  Cu110  1  0.57309600  0.17388600  0.89550100  1
  Cu  Cu111  1  0.07309600  0.32611400  0.10449900  1
  Cu  Cu112  1  0.88172500  0.98911400  0.54505500  1
  Cu  Cu113  1  0.38172500  0.51088600  0.45494500  1
  Cu  Cu114  1  0.11827500  0.48911400  0.95494500  1
  Cu  Cu115  1  0.61827500  0.01088600  0.04505500  1
  Cu  Cu116  1  0.11827500  0.01088600  0.45494500  1
  Cu  Cu117  1  0.61827500  0.48911400  0.54505500  1
  Cu  Cu118  1  0.88172500  0.51088600  0.04505500  1
  Cu  Cu119  1  0.38172500  0.98911400  0.95494500  1
