# generated using pymatgen
data_CuNiC5
_symmetry_space_group_name_H-M   'P 1'
_cell_length_a   8.76076146
_cell_length_b   8.76076146
_cell_length_c   8.76076192
_cell_angle_alpha   107.84939263
_cell_angle_beta   107.84939263
_cell_angle_gamma   107.84939517
_symmetry_Int_Tables_number   1
_chemical_formula_structural   CuNiC5
_chemical_formula_sum   'Cu6 Ni6 C30'
_cell_volume   546.48449837
_cell_formula_units_Z   6
loop_
 _symmetry_equiv_pos_site_id
 _symmetry_equiv_pos_as_xyz
  1  'x, y, z'
loop_
 _atom_site_type_symbol
 _atom_site_label
 _atom_site_symmetry_multiplicity
 _atom_site_fract_x
 _atom_site_fract_y
 _atom_site_fract_z
 _atom_site_occupancy
  C  C0  1  0.93623500  0.53535100  0.76675300  1
  C  C1  1  0.76675300  0.93623500  0.53535100  1
  C  C2  1  0.53535100  0.76675300  0.93623500  1
  C  C3  1  0.06376500  0.46464900  0.23324700  1
  C  C4  1  0.23324700  0.06376500  0.46464900  1
  C  C5  1  0.46464900  0.23324700  0.06376500  1
  Ni  Ni6  1  0.61460900  0.20839500  0.43216300  1
  Ni  Ni7  1  0.20839500  0.43216300  0.61460900  1
  Ni  Ni8  1  0.38539100  0.79160500  0.56783700  1
  Ni  Ni9  1  0.56783700  0.38539100  0.79160500  1
  Ni  Ni10  1  0.79160500  0.56783700  0.38539100  1
  Ni  Ni11  1  0.43216300  0.61460900  0.20839500  1
  Cu  Cu12  1  0.10438900  0.27509800  0.86662700  1
  Cu  Cu13  1  0.86662700  0.10438900  0.27509800  1
  Cu  Cu14  1  0.72490200  0.13337300  0.89561100  1
  Cu  Cu15  1  0.89561100  0.72490200  0.13337300  1
  Cu  Cu16  1  0.13337300  0.89561100  0.72490200  1
  Cu  Cu17  1  0.27509800  0.86662700  0.10438900  1
  C  C18  1  0.33239900  0.30105500  0.64673500  1
  C  C19  1  0.96074200  0.67812500  0.62951600  1
  C  C20  1  0.67812500  0.62951600  0.96074200  1
  C  C21  1  0.62951600  0.96074200  0.67812500  1
  C  C22  1  0.03925800  0.32187500  0.37048400  1
  C  C23  1  0.32187500  0.37048400  0.03925800  1
  C  C24  1  0.37048400  0.03925800  0.32187500  1
  C  C25  1  0.64673500  0.33239900  0.30105500  1
  C  C26  1  0.92745100  0.60432800  0.25724600  1
  C  C27  1  0.30105500  0.64673500  0.33239900  1
  C  C28  1  0.35326500  0.66760100  0.69894500  1
  C  C29  1  0.66760100  0.69894500  0.35326500  1
  C  C30  1  0.07254900  0.39567200  0.74275400  1
  C  C31  1  0.74275400  0.07254900  0.39567200  1
  C  C32  1  0.39567200  0.74275400  0.07254900  1
  C  C33  1  0.04275100  0.72323800  0.02560200  1
  C  C34  1  0.25724600  0.92745100  0.60432800  1
  C  C35  1  0.60432800  0.25724600  0.92745100  1
  C  C36  1  0.27676200  0.97439800  0.95724900  1
  C  C37  1  0.02560200  0.04275100  0.72323800  1
  C  C38  1  0.72323800  0.02560200  0.04275100  1
  C  C39  1  0.95724900  0.27676200  0.97439800  1
  C  C40  1  0.97439800  0.95724900  0.27676200  1
  C  C41  1  0.69894500  0.35326500  0.66760100  1
