# generated using pymatgen
data_Cu2NiC6
_symmetry_space_group_name_H-M   'P 1'
_cell_length_a   7.74087000
_cell_length_b   7.74087000
_cell_length_c   6.54181100
_cell_angle_alpha   90.00000000
_cell_angle_beta   90.00000000
_cell_angle_gamma   90.00000000
_symmetry_Int_Tables_number   1
_chemical_formula_structural   Cu2NiC6
_chemical_formula_sum   'Cu4 Ni2 C12'
_cell_volume   391.99230411
_cell_formula_units_Z   2
loop_
 _symmetry_equiv_pos_site_id
 _symmetry_equiv_pos_as_xyz
  1  'x, y, z'
loop_
 _atom_site_type_symbol
 _atom_site_label
 _atom_site_symmetry_multiplicity
 _atom_site_fract_x
 _atom_site_fract_y
 _atom_site_fract_z
 _atom_site_occupancy
  Ni  Ni0  1  0.50000000  0.50000000  0.00000000  1
  Ni  Ni1  1  0.00000000  0.00000000  0.00000000  1
  Cu  Cu2  1  0.17812900  0.32187100  0.50000000  1
  Cu  Cu3  1  0.67812900  0.17812900  0.50000000  1
  Cu  Cu4  1  0.82187100  0.67812900  0.50000000  1
  Cu  Cu5  1  0.32187100  0.82187100  0.50000000  1
  C  C6  1  0.00000000  0.50000000  0.00000000  1
  C  C7  1  0.50000000  0.00000000  0.00000000  1
  C  C8  1  0.12864200  0.62864200  0.78410000  1
  C  C9  1  0.87135800  0.37135800  0.78410000  1
  C  C10  1  0.37135800  0.12864200  0.78410000  1
  C  C11  1  0.62864200  0.87135800  0.78410000  1
  C  C12  1  0.12864200  0.62864200  0.21590000  1
  C  C13  1  0.62864200  0.87135800  0.21590000  1
  C  C14  1  0.37135800  0.12864200  0.21590000  1
  C  C15  1  0.87135800  0.37135800  0.21590000  1
  C  C16  1  0.00000000  0.00000000  0.50000000  1
  C  C17  1  0.50000000  0.50000000  0.50000000  1
