# generated using pymatgen
data_Cu3NiC
_symmetry_space_group_name_H-M   'P 1'
_cell_length_a   6.03267400
_cell_length_b   7.67603200
_cell_length_c   8.99600100
_cell_angle_alpha   90.00000000
_cell_angle_beta   90.00000000
_cell_angle_gamma   90.00000000
_symmetry_Int_Tables_number   1
_chemical_formula_structural   Cu3NiC
_chemical_formula_sum   'Cu12 Ni4 C4'
_cell_volume   416.57780634
_cell_formula_units_Z   4
loop_
 _symmetry_equiv_pos_site_id
 _symmetry_equiv_pos_as_xyz
  1  'x, y, z'
loop_
 _atom_site_type_symbol
 _atom_site_label
 _atom_site_symmetry_multiplicity
 _atom_site_fract_x
 _atom_site_fract_y
 _atom_site_fract_z
 _atom_site_occupancy
  C  C0  1  0.07079600  0.88595600  0.43320500  1
  C  C1  1  0.92920400  0.11404400  0.93320500  1
  C  C2  1  0.57079600  0.61404400  0.93320500  1
  C  C3  1  0.42920400  0.38595600  0.43320500  1
  Ni  Ni4  1  0.59622100  0.85377300  0.60438700  1
  Ni  Ni5  1  0.40377900  0.14622700  0.10438700  1
  Ni  Ni6  1  0.09622100  0.64622700  0.10438700  1
  Ni  Ni7  1  0.90377900  0.35377300  0.60438700  1
  Cu  Cu8  1  0.83463500  0.82688600  0.72659300  1
  Cu  Cu9  1  0.16536500  0.17311400  0.22659300  1
  Cu  Cu10  1  0.33463500  0.67311400  0.22659300  1
  Cu  Cu11  1  0.66536500  0.32688600  0.72659300  1
  Cu  Cu12  1  0.13406300  0.20427000  0.63555900  1
  Cu  Cu13  1  0.86593700  0.79573000  0.13555900  1
  Cu  Cu14  1  0.63406300  0.29573000  0.13555900  1
  Cu  Cu15  1  0.36593700  0.70427000  0.63555900  1
  Cu  Cu16  1  0.59568800  0.99796900  0.44607600  1
  Cu  Cu17  1  0.40431200  0.00203100  0.94607600  1
  Cu  Cu18  1  0.09568800  0.50203100  0.94607600  1
  Cu  Cu19  1  0.90431200  0.49796900  0.44607600  1
