# generated using pymatgen
data_Cu11Ni9C10
_symmetry_space_group_name_H-M   'P 1'
_cell_length_a   15.49485300
_cell_length_b   4.76371400
_cell_length_c   4.77024653
_cell_angle_alpha   88.54240717
_cell_angle_beta   90.00000000
_cell_angle_gamma   90.00000000
_symmetry_Int_Tables_number   1
_chemical_formula_structural   Cu11Ni9C10
_chemical_formula_sum   'Cu11 Ni9 C10'
_cell_volume   351.99250422
_cell_formula_units_Z   1
loop_
 _symmetry_equiv_pos_site_id
 _symmetry_equiv_pos_as_xyz
  1  'x, y, z'
loop_
 _atom_site_type_symbol
 _atom_site_label
 _atom_site_symmetry_multiplicity
 _atom_site_fract_x
 _atom_site_fract_y
 _atom_site_fract_z
 _atom_site_occupancy
  C  C0  1  0.29402000  0.02498100  0.95702900  1
  C  C1  1  0.50000000  0.98793600  0.01460900  1
  C  C2  1  0.70598000  0.02498100  0.95702900  1
  C  C3  1  0.90125000  0.94961700  0.00283800  1
  C  C4  1  0.09875000  0.94961700  0.00283800  1
  C  C5  1  0.40661100  0.48337700  0.50965900  1
  C  C6  1  0.79796400  0.52706100  0.52043900  1
  C  C7  1  0.59338900  0.48337700  0.50965900  1
  C  C8  1  0.00000000  0.53678000  0.49872500  1
  C  C9  1  0.20203600  0.52706100  0.52043900  1
  Ni  Ni10  1  0.80089600  0.81151900  0.80735500  1
  Ni  Ni11  1  0.00000000  0.79580200  0.81177900  1
  Ni  Ni12  1  0.19910400  0.81151900  0.80735500  1
  Ni  Ni13  1  0.50000000  0.68333500  0.31566700  1
  Ni  Ni14  1  0.89792200  0.68407400  0.31572800  1
  Ni  Ni15  1  0.10207800  0.68407400  0.31572800  1
  Ni  Ni16  1  0.29927500  0.31984700  0.68008200  1
  Ni  Ni17  1  0.50000000  0.28937700  0.70098300  1
  Ni  Ni18  1  0.70072500  0.31984700  0.68008200  1
  Cu  Cu19  1  0.39122100  0.80262800  0.79809100  1
  Cu  Cu20  1  0.60877900  0.80262800  0.79809100  1
  Cu  Cu21  1  0.29966300  0.71224000  0.29261800  1
  Cu  Cu22  1  0.70033700  0.71224000  0.29261800  1
  Cu  Cu23  1  0.90087200  0.29855400  0.70618600  1
  Cu  Cu24  1  0.09912800  0.29855400  0.70618600  1
  Cu  Cu25  1  0.38854500  0.19731500  0.19428700  1
  Cu  Cu26  1  0.80228400  0.19922300  0.19384000  1
  Cu  Cu27  1  0.61145500  0.19731500  0.19428700  1
  Cu  Cu28  1  0.19771600  0.19922300  0.19384000  1
  Cu  Cu29  1  0.00000000  0.18589800  0.20193100  1
