# generated using pymatgen
data_Cu(NiC5)2
_symmetry_space_group_name_H-M   'P 1'
_cell_length_a   7.07478600
_cell_length_b   5.29775300
_cell_length_c   8.45927834
_cell_angle_alpha   88.86239864
_cell_angle_beta   90.00000000
_cell_angle_gamma   90.00000000
_symmetry_Int_Tables_number   1
_chemical_formula_structural   Cu(NiC5)2
_chemical_formula_sum   'Cu2 Ni4 C20'
_cell_volume   316.99522483
_cell_formula_units_Z   2
loop_
 _symmetry_equiv_pos_site_id
 _symmetry_equiv_pos_as_xyz
  1  'x, y, z'
loop_
 _atom_site_type_symbol
 _atom_site_label
 _atom_site_symmetry_multiplicity
 _atom_site_fract_x
 _atom_site_fract_y
 _atom_site_fract_z
 _atom_site_occupancy
  C  C0  1  0.41960000  0.12178600  0.45304600  1
  C  C1  1  0.91960000  0.87821400  0.54695400  1
  Ni  Ni2  1  0.09902400  0.22266500  0.13257500  1
  Ni  Ni3  1  0.59902400  0.77733500  0.86742500  1
  Ni  Ni4  1  0.53076100  0.26967400  0.07070500  1
  Ni  Ni5  1  0.03076100  0.73032600  0.92929500  1
  Cu  Cu6  1  0.80486900  0.25212200  0.33882700  1
  Cu  Cu7  1  0.30486900  0.74787800  0.66117300  1
  C  C8  1  0.65280400  0.80241600  0.26920000  1
  C  C9  1  0.15280400  0.19758400  0.73080000  1
  C  C10  1  0.13827300  0.38830200  0.58481500  1
  C  C11  1  0.63827300  0.61169800  0.41518500  1
  C  C12  1  0.32796400  0.23765800  0.16473800  1
  C  C13  1  0.82796400  0.76234200  0.83526200  1
  C  C14  1  0.04601100  0.94537300  0.06377800  1
  C  C15  1  0.54601100  0.05462700  0.93622200  1
  C  C16  1  0.69339700  0.21762500  0.19948500  1
  C  C17  1  0.19339700  0.78237500  0.80051500  1
  C  C18  1  0.00168600  0.25818100  0.30495500  1
  C  C19  1  0.50168600  0.74181900  0.69504500  1
  C  C20  1  0.54083500  0.55537500  0.99589100  1
  C  C21  1  0.04083500  0.44462500  0.00410900  1
  C  C22  1  0.72474400  0.71659500  0.35215000  1
  C  C23  1  0.22474400  0.28340500  0.64785000  1
  C  C24  1  0.23591200  0.75686700  0.51695400  1
  C  C25  1  0.73591200  0.24313300  0.48304600  1
