# generated using pymatgen
data_CuNiC10
_symmetry_space_group_name_H-M   'P 1'
_cell_length_a   8.58699900
_cell_length_b   8.59140362
_cell_length_c   12.20770988
_cell_angle_alpha   89.43088486
_cell_angle_beta   89.52247293
_cell_angle_gamma   89.92370701
_symmetry_Int_Tables_number   1
_chemical_formula_structural   CuNiC10
_chemical_formula_sum   'Cu4 Ni4 C40'
_cell_volume   900.53974935
_cell_formula_units_Z   4
loop_
 _symmetry_equiv_pos_site_id
 _symmetry_equiv_pos_as_xyz
  1  'x, y, z'
loop_
 _atom_site_type_symbol
 _atom_site_label
 _atom_site_symmetry_multiplicity
 _atom_site_fract_x
 _atom_site_fract_y
 _atom_site_fract_z
 _atom_site_occupancy
  C  C0  1  0.58414000  0.08188200  0.70377500  1
  C  C1  1  0.37935900  0.03614800  0.70729300  1
  C  C2  1  0.60561400  0.96701600  0.88663300  1
  C  C3  1  0.41938100  0.91754200  0.88726300  1
  C  C4  1  0.46414400  0.10445700  0.88881700  1
  C  C5  1  0.07994400  0.58533200  0.70225200  1
  C  C6  1  0.87750700  0.52983800  0.70670700  1
  C  C7  1  0.10947300  0.47822600  0.88398500  1
  C  C8  1  0.92452300  0.41641400  0.88978300  1
  C  C9  1  0.96493500  0.60602200  0.88584800  1
  C  C10  1  0.11716900  0.50968600  0.20277800  1
  C  C11  1  0.92964700  0.60407800  0.20635600  1
  C  C12  1  0.06904000  0.40949900  0.38648800  1
  C  C13  1  0.89049600  0.48978300  0.38849100  1
  C  C14  1  0.04627100  0.60191600  0.38545200  1
  C  C15  1  0.57902200  0.08538400  0.20296000  1
  C  C16  1  0.37826700  0.02473600  0.20691800  1
  C  C17  1  0.60905200  0.98170500  0.38589700  1
  C  C18  1  0.42532800  0.91619000  0.39099600  1
  C  C19  1  0.46227500  0.10652200  0.38561800  1
  C  C20  1  0.94072400  0.39592600  0.20514400  1
  C  C21  1  0.02507600  0.38261100  0.70475700  1
  C  C22  1  0.51908600  0.88180900  0.70526700  1
  C  C23  1  0.52971500  0.88122200  0.20698300  1
  C  C24  1  0.00169900  0.00032200  0.00691600  1
  C  C25  1  0.50198200  0.50053600  0.50700700  1
  C  C26  1  0.99702300  0.00085400  0.50703300  1
  C  C27  1  0.50055700  0.50120500  0.00697900  1
  Ni  Ni28  1  0.49619100  0.99756900  0.23387300  1
  Ni  Ni29  1  0.99517900  0.49917200  0.73295700  1
  Ni  Ni30  1  0.99711600  0.50216400  0.23310500  1
  Ni  Ni31  1  0.49553900  0.00012700  0.73380500  1
  C  C32  1  0.99929900  0.99986000  0.24978600  1
  C  C33  1  0.49900400  0.50056200  0.74974400  1
  C  C34  1  0.00028600  0.99991900  0.74975000  1
  C  C35  1  0.50055800  0.49963900  0.24974900  1
  C  C36  1  0.77465700  0.27291700  0.00373700  1
  C  C37  1  0.27122100  0.77167900  0.50244700  1
  C  C38  1  0.73123000  0.77699900  0.00264400  1
  C  C39  1  0.22637400  0.27233200  0.50187200  1
  C  C40  1  0.22957700  0.72814000  0.00193900  1
  C  C41  1  0.72631700  0.22684000  0.50396500  1
  C  C42  1  0.27770100  0.23065800  0.00295700  1
  C  C43  1  0.77303200  0.72585600  0.50365600  1
  Cu  Cu44  1  0.49911200  0.00081200  0.35598400  1
  Cu  Cu45  1  0.99908700  0.50045100  0.85500300  1
  Cu  Cu46  1  0.00047500  0.50054900  0.35508300  1
  Cu  Cu47  1  0.49726500  0.99811400  0.85570900  1
