# generated using pymatgen
data_Cu2Ni
_symmetry_space_group_name_H-M   'P 1'
_cell_length_a   3.70084184
_cell_length_b   3.70084184
_cell_length_c   13.32817400
_cell_angle_alpha   90.00000000
_cell_angle_beta   90.00000000
_cell_angle_gamma   119.99999710
_symmetry_Int_Tables_number   1
_chemical_formula_structural   Cu2Ni
_chemical_formula_sum   'Cu4 Ni2'
_cell_volume   158.08925341
_cell_formula_units_Z   2
loop_
 _symmetry_equiv_pos_site_id
 _symmetry_equiv_pos_as_xyz
  1  'x, y, z'
loop_
 _atom_site_type_symbol
 _atom_site_label
 _atom_site_symmetry_multiplicity
 _atom_site_fract_x
 _atom_site_fract_y
 _atom_site_fract_z
 _atom_site_occupancy
  Ni  Ni0  1  0.33333300  0.66666700  0.62502100  1
  Ni  Ni1  1  0.66666700  0.33333300  0.12502100  1
  Cu  Cu2  1  0.66666700  0.33333300  0.73585900  1
  Cu  Cu3  1  0.33333300  0.66666700  0.23585900  1
  Cu  Cu4  1  0.00000000  0.00000000  0.01412100  1
  Cu  Cu5  1  0.00000000  0.00000000  0.51412100  1
