# generated using pymatgen
data_CuNiC3
_symmetry_space_group_name_H-M   'P 1'
_cell_length_a   6.37916200
_cell_length_b   9.05081900
_cell_length_c   13.14400300
_cell_angle_alpha   90.00000000
_cell_angle_beta   90.00000000
_cell_angle_gamma   90.00000000
_symmetry_Int_Tables_number   1
_chemical_formula_structural   CuNiC3
_chemical_formula_sum   'Cu8 Ni8 C24'
_cell_volume   758.89057770
_cell_formula_units_Z   8
loop_
 _symmetry_equiv_pos_site_id
 _symmetry_equiv_pos_as_xyz
  1  'x, y, z'
loop_
 _atom_site_type_symbol
 _atom_site_label
 _atom_site_symmetry_multiplicity
 _atom_site_fract_x
 _atom_site_fract_y
 _atom_site_fract_z
 _atom_site_occupancy
  Ni  Ni0  1  0.25857900  0.00000000  0.88147700  1
  Ni  Ni1  1  0.75857900  0.00000000  0.61852300  1
  Ni  Ni2  1  0.74142100  0.00000000  0.11852300  1
  Ni  Ni3  1  0.24142100  0.00000000  0.38147700  1
  Ni  Ni4  1  0.25125900  0.50000000  0.87253300  1
  Ni  Ni5  1  0.75125900  0.50000000  0.62746700  1
  Ni  Ni6  1  0.74874100  0.50000000  0.12746700  1
  Ni  Ni7  1  0.24874100  0.50000000  0.37253300  1
  Cu  Cu8  1  0.74421600  0.25002300  0.87451800  1
  Cu  Cu9  1  0.24421600  0.74997700  0.62548200  1
  Cu  Cu10  1  0.25578400  0.25002300  0.12548200  1
  Cu  Cu11  1  0.75578400  0.74997700  0.37451800  1
  Cu  Cu12  1  0.25578400  0.74997700  0.12548200  1
  Cu  Cu13  1  0.75578400  0.25002300  0.37451800  1
  Cu  Cu14  1  0.74421600  0.74997700  0.87451800  1
  Cu  Cu15  1  0.24421600  0.25002300  0.62548200  1
  C  C16  1  0.71033600  0.00000000  0.82999600  1
  C  C17  1  0.21033600  0.00000000  0.67000400  1
  C  C18  1  0.28966400  0.00000000  0.17000400  1
  C  C19  1  0.78966400  0.00000000  0.32999600  1
  C  C20  1  0.69718100  0.50000000  0.91621700  1
  C  C21  1  0.19718100  0.50000000  0.58378300  1
  C  C22  1  0.30281900  0.50000000  0.08378300  1
  C  C23  1  0.80281900  0.50000000  0.41621700  1
  C  C24  1  0.95893600  0.30108400  0.73924800  1
  C  C25  1  0.45893600  0.69891600  0.76075200  1
  C  C26  1  0.04106400  0.30108400  0.26075200  1
  C  C27  1  0.54106400  0.69891600  0.23924800  1
  C  C28  1  0.04106400  0.69891600  0.26075200  1
  C  C29  1  0.54106400  0.30108400  0.23924800  1
  C  C30  1  0.95893600  0.69891600  0.73924800  1
  C  C31  1  0.45893600  0.30108400  0.76075200  1
  C  C32  1  0.00000000  0.19094000  0.50000000  1
  C  C33  1  0.50000000  0.80906000  0.00000000  1
  C  C34  1  0.00000000  0.80906000  0.50000000  1
  C  C35  1  0.50000000  0.19094000  0.00000000  1
  C  C36  1  0.00000000  0.20426200  0.00000000  1
  C  C37  1  0.50000000  0.79573800  0.50000000  1
  C  C38  1  0.00000000  0.79573800  0.00000000  1
  C  C39  1  0.50000000  0.20426200  0.50000000  1
