# generated using pymatgen
data_Cu3NiC
_symmetry_space_group_name_H-M   'P 1'
_cell_length_a   6.57443359
_cell_length_b   6.57443359
_cell_length_c   7.32466753
_cell_angle_alpha   75.68453675
_cell_angle_beta   75.68453675
_cell_angle_gamma   94.84905539
_symmetry_Int_Tables_number   1
_chemical_formula_structural   Cu3NiC
_chemical_formula_sum   'Cu12 Ni4 C4'
_cell_volume   293.63995693
_cell_formula_units_Z   4
loop_
 _symmetry_equiv_pos_site_id
 _symmetry_equiv_pos_as_xyz
  1  'x, y, z'
loop_
 _atom_site_type_symbol
 _atom_site_label
 _atom_site_symmetry_multiplicity
 _atom_site_fract_x
 _atom_site_fract_y
 _atom_site_fract_z
 _atom_site_occupancy
  C  C0  1  0.88583000  0.11417000  0.25000000  1
  C  C1  1  0.11417000  0.88583000  0.75000000  1
  C  C2  1  0.40411100  0.59588900  0.25000000  1
  C  C3  1  0.59588900  0.40411100  0.75000000  1
  Ni  Ni4  1  0.60384200  0.85116000  0.75195800  1
  Ni  Ni5  1  0.14884000  0.39615800  0.74804200  1
  Ni  Ni6  1  0.39615800  0.14884000  0.24804200  1
  Ni  Ni7  1  0.85116000  0.60384200  0.25195800  1
  Cu  Cu8  1  0.04864300  0.60137200  0.23747600  1
  Cu  Cu9  1  0.39862800  0.95135700  0.26252400  1
  Cu  Cu10  1  0.95135700  0.39862800  0.76252400  1
  Cu  Cu11  1  0.60137200  0.04864300  0.73747600  1
  Cu  Cu12  1  0.78449600  0.73462000  0.12368500  1
  Cu  Cu13  1  0.26538000  0.21550400  0.37631500  1
  Cu  Cu14  1  0.21550400  0.26538000  0.87631500  1
  Cu  Cu15  1  0.73462000  0.78449600  0.62368500  1
  Cu  Cu16  1  0.70260800  0.46869800  0.39702000  1
  Cu  Cu17  1  0.53130200  0.29739200  0.10298000  1
  Cu  Cu18  1  0.29739200  0.53130200  0.60298000  1
  Cu  Cu19  1  0.46869800  0.70260800  0.89702000  1
