# generated using pymatgen
data_Cu2(NiC)3
_symmetry_space_group_name_H-M   'P 1'
_cell_length_a   5.29033206
_cell_length_b   5.29033206
_cell_length_c   12.90555300
_cell_angle_alpha   90.00000000
_cell_angle_beta   90.00000000
_cell_angle_gamma   137.15926914
_symmetry_Int_Tables_number   1
_chemical_formula_structural   Cu2(NiC)3
_chemical_formula_sum   'Cu4 Ni6 C6'
_cell_volume   245.59956514
_cell_formula_units_Z   2
loop_
 _symmetry_equiv_pos_site_id
 _symmetry_equiv_pos_as_xyz
  1  'x, y, z'
loop_
 _atom_site_type_symbol
 _atom_site_label
 _atom_site_symmetry_multiplicity
 _atom_site_fract_x
 _atom_site_fract_y
 _atom_site_fract_z
 _atom_site_occupancy
  C  C0  1  0.13443800  0.86556200  0.25000000  1
  C  C1  1  0.86556200  0.13443800  0.75000000  1
  C  C2  1  0.57320400  0.42679600  0.61758600  1
  C  C3  1  0.42679600  0.57320400  0.38241400  1
  C  C4  1  0.42679600  0.57320400  0.11758600  1
  C  C5  1  0.57320400  0.42679600  0.88241400  1
  Ni  Ni6  1  0.84123200  0.15876800  0.25000000  1
  Ni  Ni7  1  0.15876800  0.84123200  0.75000000  1
  Ni  Ni8  1  0.88805700  0.11194300  0.54069900  1
  Ni  Ni9  1  0.11194300  0.88805700  0.45930100  1
  Ni  Ni10  1  0.11194300  0.88805700  0.04069900  1
  Ni  Ni11  1  0.88805700  0.11194300  0.95930100  1
  Cu  Cu12  1  0.28180000  0.71820000  0.91077400  1
  Cu  Cu13  1  0.71820000  0.28180000  0.08922600  1
  Cu  Cu14  1  0.71820000  0.28180000  0.41077400  1
  Cu  Cu15  1  0.28180000  0.71820000  0.58922600  1
