# generated using pymatgen
data_CuNiC2
_symmetry_space_group_name_H-M   'P 1'
_cell_length_a   7.54646562
_cell_length_b   7.54646562
_cell_length_c   7.54646562
_cell_angle_alpha   100.63655345
_cell_angle_beta   100.63655345
_cell_angle_gamma   129.11235909
_symmetry_Int_Tables_number   1
_chemical_formula_structural   CuNiC2
_chemical_formula_sum   'Cu8 Ni8 C16'
_cell_volume   301.11572921
_cell_formula_units_Z   8
loop_
 _symmetry_equiv_pos_site_id
 _symmetry_equiv_pos_as_xyz
  1  'x, y, z'
loop_
 _atom_site_type_symbol
 _atom_site_label
 _atom_site_symmetry_multiplicity
 _atom_site_fract_x
 _atom_site_fract_y
 _atom_site_fract_z
 _atom_site_occupancy
  C  C0  1  0.23733700  0.33430000  0.34145500  1
  C  C1  1  0.99284500  0.89588200  0.65854500  1
  C  C2  1  0.58430000  0.74284500  0.59696300  1
  C  C3  1  0.14588200  0.98733700  0.40303700  1
  C  C4  1  0.01266300  0.41570000  0.15854500  1
  C  C5  1  0.25715500  0.85411800  0.84145500  1
  C  C6  1  0.66570000  0.00715500  0.90303700  1
  C  C7  1  0.10411800  0.76266300  0.09696300  1
  C  C8  1  0.33652400  0.23550300  0.17840400  1
  C  C9  1  0.05709900  0.15812000  0.82159600  1
  C  C10  1  0.48550300  0.80709900  0.39897900  1
  C  C11  1  0.40812000  0.08652400  0.60102100  1
  C  C12  1  0.91347600  0.51449700  0.32159600  1
  C  C13  1  0.19290100  0.59188000  0.67840400  1
  C  C14  1  0.76449700  0.94290100  0.10102100  1
  C  C15  1  0.84188000  0.66347600  0.89897900  1
  Ni  Ni16  1  0.39595500  0.36589400  0.32236400  1
  Ni  Ni17  1  0.04353000  0.07359100  0.67763600  1
  Ni  Ni18  1  0.61589400  0.79353000  0.46993900  1
  Ni  Ni19  1  0.32359100  0.14595500  0.53006100  1
  Ni  Ni20  1  0.85404500  0.38410600  0.17763600  1
  Ni  Ni21  1  0.20647000  0.67640900  0.82236400  1
  Ni  Ni22  1  0.63410600  0.95647000  0.03006100  1
  Ni  Ni23  1  0.92640900  0.60404500  0.96993900  1
  Cu  Cu24  1  0.57962200  0.60346900  0.33009400  1
  Cu  Cu25  1  0.27337500  0.24952800  0.66990600  1
  Cu  Cu26  1  0.85346900  0.02337500  0.52384700  1
  Cu  Cu27  1  0.49952800  0.32962200  0.47615300  1
  Cu  Cu28  1  0.67037800  0.14653100  0.16990600  1
  Cu  Cu29  1  0.97662500  0.50047200  0.83009400  1
  Cu  Cu30  1  0.39653100  0.72662500  0.97615300  1
  Cu  Cu31  1  0.75047200  0.42037800  0.02384700  1
