# generated using pymatgen
data_CuNi2C
_symmetry_space_group_name_H-M   'P 1'
_cell_length_a   3.18199100
_cell_length_b   4.62407100
_cell_length_c   5.89627500
_cell_angle_alpha   90.00000000
_cell_angle_beta   90.00000000
_cell_angle_gamma   90.00000000
_symmetry_Int_Tables_number   1
_chemical_formula_structural   CuNi2C
_chemical_formula_sum   'Cu2 Ni4 C2'
_cell_volume   86.75632987
_cell_formula_units_Z   2
loop_
 _symmetry_equiv_pos_site_id
 _symmetry_equiv_pos_as_xyz
  1  'x, y, z'
loop_
 _atom_site_type_symbol
 _atom_site_label
 _atom_site_symmetry_multiplicity
 _atom_site_fract_x
 _atom_site_fract_y
 _atom_site_fract_z
 _atom_site_occupancy
  C  C0  1  0.00000000  0.67611600  0.79353600  1
  C  C1  1  0.50000000  0.17611600  0.20646400  1
  Ni  Ni2  1  0.00000000  0.99610900  0.38128300  1
  Ni  Ni3  1  0.50000000  0.49610900  0.61871700  1
  Ni  Ni4  1  0.50000000  0.52136200  0.39663300  1
  Ni  Ni5  1  0.00000000  0.02136200  0.60336700  1
  Cu  Cu6  1  0.00000000  0.35188300  0.01702800  1
  Cu  Cu7  1  0.50000000  0.85188300  0.98297200  1
