# generated using pymatgen
data_Cu4Ni3
_symmetry_space_group_name_H-M   'P 1'
_cell_length_a   7.13293050
_cell_length_b   7.13293050
_cell_length_c   7.13764500
_cell_angle_alpha   90.00000000
_cell_angle_beta   90.00000000
_cell_angle_gamma   119.98104522
_symmetry_Int_Tables_number   1
_chemical_formula_structural   Cu4Ni3
_chemical_formula_sum   'Cu16 Ni12'
_cell_volume   314.56071258
_cell_formula_units_Z   4
loop_
 _symmetry_equiv_pos_site_id
 _symmetry_equiv_pos_as_xyz
  1  'x, y, z'
loop_
 _atom_site_type_symbol
 _atom_site_label
 _atom_site_symmetry_multiplicity
 _atom_site_fract_x
 _atom_site_fract_y
 _atom_site_fract_z
 _atom_site_occupancy
  Ni  Ni0  1  0.67895100  0.67884900  0.25000000  1
  Ni  Ni1  1  0.99462200  0.66798100  0.25000000  1
  Ni  Ni2  1  0.99454900  0.00545100  0.25000000  1
  Ni  Ni3  1  0.32068000  0.67932000  0.25000000  1
  Ni  Ni4  1  0.33201900  0.00537800  0.25000000  1
  Ni  Ni5  1  0.32115100  0.32104900  0.25000000  1
  Ni  Ni6  1  0.32104900  0.32115100  0.75000000  1
  Ni  Ni7  1  0.00537800  0.33201900  0.75000000  1
  Ni  Ni8  1  0.00545100  0.99454900  0.75000000  1
  Ni  Ni9  1  0.67932000  0.32068000  0.75000000  1
  Ni  Ni10  1  0.66798100  0.99462200  0.75000000  1
  Ni  Ni11  1  0.67884900  0.67895100  0.75000000  1
  Cu  Cu12  1  0.44023600  0.55976400  0.25000000  1
  Cu  Cu13  1  0.77902700  0.89509200  0.25000000  1
  Cu  Cu14  1  0.77888000  0.56334500  0.25000000  1
  Cu  Cu15  1  0.10705700  0.89294300  0.25000000  1
  Cu  Cu16  1  0.10516900  0.56350100  0.25000000  1
  Cu  Cu17  1  0.43649900  0.89483100  0.25000000  1
  Cu  Cu18  1  0.43665500  0.22112000  0.25000000  1
  Cu  Cu19  1  0.10490800  0.22097300  0.25000000  1
  Cu  Cu20  1  0.55976400  0.44023600  0.75000000  1
  Cu  Cu21  1  0.22097300  0.10490800  0.75000000  1
  Cu  Cu22  1  0.22112000  0.43665500  0.75000000  1
  Cu  Cu23  1  0.89294300  0.10705700  0.75000000  1
  Cu  Cu24  1  0.89483100  0.43649900  0.75000000  1
  Cu  Cu25  1  0.56350100  0.10516900  0.75000000  1
  Cu  Cu26  1  0.56334500  0.77888000  0.75000000  1
  Cu  Cu27  1  0.89509200  0.77902700  0.75000000  1
