# generated using pymatgen
data_Cu3Ni2C3
_symmetry_space_group_name_H-M   'P 1'
_cell_length_a   8.28966327
_cell_length_b   8.28966327
_cell_length_c   8.28966308
_cell_angle_alpha   47.35309048
_cell_angle_beta   47.35309048
_cell_angle_gamma   47.35308810
_symmetry_Int_Tables_number   1
_chemical_formula_structural   Cu3Ni2C3
_chemical_formula_sum   'Cu3 Ni2 C3'
_cell_volume   281.94274241
_cell_formula_units_Z   1
loop_
 _symmetry_equiv_pos_site_id
 _symmetry_equiv_pos_as_xyz
  1  'x, y, z'
loop_
 _atom_site_type_symbol
 _atom_site_label
 _atom_site_symmetry_multiplicity
 _atom_site_fract_x
 _atom_site_fract_y
 _atom_site_fract_z
 _atom_site_occupancy
  C  C0  1  0.50000000  0.50000000  0.50000000  1
  C  C1  1  0.91821900  0.91821900  0.91821900  1
  C  C2  1  0.08178100  0.08178100  0.08178100  1
  Ni  Ni3  1  0.24773500  0.24773500  0.24773500  1
  Ni  Ni4  1  0.75226500  0.75226500  0.75226500  1
  Cu  Cu5  1  0.00000000  0.50000000  0.50000000  1
  Cu  Cu6  1  0.50000000  0.00000000  0.50000000  1
  Cu  Cu7  1  0.50000000  0.50000000  0.00000000  1
