# generated using pymatgen
data_CuNiC3
_symmetry_space_group_name_H-M   'P 1'
_cell_length_a   8.00721656
_cell_length_b   8.00721656
_cell_length_c   8.00721725
_cell_angle_alpha   60.72271413
_cell_angle_beta   60.72271413
_cell_angle_gamma   60.72271313
_symmetry_Int_Tables_number   1
_chemical_formula_structural   CuNiC3
_chemical_formula_sum   'Cu2 Ni2 C6'
_cell_volume   368.93993833
_cell_formula_units_Z   2
loop_
 _symmetry_equiv_pos_site_id
 _symmetry_equiv_pos_as_xyz
  1  'x, y, z'
loop_
 _atom_site_type_symbol
 _atom_site_label
 _atom_site_symmetry_multiplicity
 _atom_site_fract_x
 _atom_site_fract_y
 _atom_site_fract_z
 _atom_site_occupancy
  Ni  Ni0  1  0.73281100  0.73281100  0.73281100  1
  Ni  Ni1  1  0.23281100  0.23281100  0.23281100  1
  Cu  Cu2  1  0.99351100  0.99351100  0.99351100  1
  Cu  Cu3  1  0.49351100  0.49351100  0.49351100  1
  C  C4  1  0.75629500  0.17651300  0.31237100  1
  C  C5  1  0.17651300  0.31237100  0.75629500  1
  C  C6  1  0.31237100  0.75629500  0.17651300  1
  C  C7  1  0.81237100  0.67651300  0.25629500  1
  C  C8  1  0.25629500  0.81237100  0.67651300  1
  C  C9  1  0.67651300  0.25629500  0.81237100  1
