# generated using pymatgen
data_CuNi2C
_symmetry_space_group_name_H-M   'P 1'
_cell_length_a   4.64309700
_cell_length_b   4.75714000
_cell_length_c   9.07464377
_cell_angle_alpha   74.80460208
_cell_angle_beta   90.00000000
_cell_angle_gamma   90.00000000
_symmetry_Int_Tables_number   1
_chemical_formula_structural   CuNi2C
_chemical_formula_sum   'Cu2 Ni4 C2'
_cell_volume   193.43162827
_cell_formula_units_Z   2
loop_
 _symmetry_equiv_pos_site_id
 _symmetry_equiv_pos_as_xyz
  1  'x, y, z'
loop_
 _atom_site_type_symbol
 _atom_site_label
 _atom_site_symmetry_multiplicity
 _atom_site_fract_x
 _atom_site_fract_y
 _atom_site_fract_z
 _atom_site_occupancy
  C  C0  1  0.25000000  0.39440800  0.21118400  1
  C  C1  1  0.75000000  0.60559200  0.78881600  1
  Ni  Ni2  1  0.25000000  0.03753900  0.92492200  1
  Ni  Ni3  1  0.75000000  0.96246100  0.07507800  1
  Ni  Ni4  1  0.75000000  0.25026300  0.49947400  1
  Ni  Ni5  1  0.25000000  0.74973700  0.50052600  1
  Cu  Cu6  1  0.75000000  0.81390000  0.37220000  1
  Cu  Cu7  1  0.25000000  0.18610000  0.62780000  1
