# generated using pymatgen
data_Cu3NiC
_symmetry_space_group_name_H-M   'P 1'
_cell_length_a   6.04858400
_cell_length_b   7.44542000
_cell_length_c   8.87977800
_cell_angle_alpha   90.00000000
_cell_angle_beta   90.00000000
_cell_angle_gamma   90.00000000
_symmetry_Int_Tables_number   1
_chemical_formula_structural   Cu3NiC
_chemical_formula_sum   'Cu12 Ni4 C4'
_cell_volume   399.89412717
_cell_formula_units_Z   4
loop_
 _symmetry_equiv_pos_site_id
 _symmetry_equiv_pos_as_xyz
  1  'x, y, z'
loop_
 _atom_site_type_symbol
 _atom_site_label
 _atom_site_symmetry_multiplicity
 _atom_site_fract_x
 _atom_site_fract_y
 _atom_site_fract_z
 _atom_site_occupancy
  C  C0  1  0.93612500  0.88323600  0.75816600  1
  C  C1  1  0.56387500  0.38323600  0.75816600  1
  C  C2  1  0.43612500  0.61676400  0.25816600  1
  C  C3  1  0.06387500  0.11676400  0.25816600  1
  Ni  Ni4  1  0.40084200  0.85493900  0.92800400  1
  Ni  Ni5  1  0.59915800  0.14506100  0.42800400  1
  Ni  Ni6  1  0.09915800  0.35493900  0.92800400  1
  Ni  Ni7  1  0.90084200  0.64506100  0.42800400  1
  Cu  Cu8  1  0.66665100  0.67458900  0.55506000  1
  Cu  Cu9  1  0.63515100  0.70433800  0.95786400  1
  Cu  Cu10  1  0.86484900  0.20433800  0.95786400  1
  Cu  Cu11  1  0.13515100  0.79566200  0.45786400  1
  Cu  Cu12  1  0.83334900  0.17458900  0.55506000  1
  Cu  Cu13  1  0.89145300  0.49750800  0.26700600  1
  Cu  Cu14  1  0.10854700  0.50249200  0.76700600  1
  Cu  Cu15  1  0.39145300  0.00249200  0.76700600  1
  Cu  Cu16  1  0.60854700  0.99750800  0.26700600  1
  Cu  Cu17  1  0.33334900  0.32541100  0.05506000  1
  Cu  Cu18  1  0.36484900  0.29566200  0.45786400  1
  Cu  Cu19  1  0.16665100  0.82541100  0.05506000  1
