# generated using pymatgen
data_Cu3NiC3
_symmetry_space_group_name_H-M   'P 1'
_cell_length_a   6.19065137
_cell_length_b   6.19065137
_cell_length_c   6.19065185
_cell_angle_alpha   105.70154994
_cell_angle_beta   105.70154994
_cell_angle_gamma   105.70155061
_symmetry_Int_Tables_number   1
_chemical_formula_structural   Cu3NiC3
_chemical_formula_sum   'Cu3 Ni1 C3'
_cell_volume   204.18019176
_cell_formula_units_Z   1
loop_
 _symmetry_equiv_pos_site_id
 _symmetry_equiv_pos_as_xyz
  1  'x, y, z'
loop_
 _atom_site_type_symbol
 _atom_site_label
 _atom_site_symmetry_multiplicity
 _atom_site_fract_x
 _atom_site_fract_y
 _atom_site_fract_z
 _atom_site_occupancy
  C  C0  1  0.01108900  0.61363100  0.01108900  1
  C  C1  1  0.01108900  0.01108900  0.61363100  1
  C  C2  1  0.61363100  0.01108900  0.01108900  1
  Ni  Ni3  1  0.43653300  0.43653300  0.43653300  1
  Cu  Cu4  1  0.42141400  0.05982900  0.42141400  1
  Cu  Cu5  1  0.42141400  0.42141400  0.05982900  1
  Cu  Cu6  1  0.05982900  0.42141400  0.42141400  1
