# generated using pymatgen
data_CuNiC2
_symmetry_space_group_name_H-M   'P 1'
_cell_length_a   4.00228307
_cell_length_b   4.00228307
_cell_length_c   10.66105900
_cell_angle_alpha   79.18107914
_cell_angle_beta   79.18107914
_cell_angle_gamma   60.00001533
_symmetry_Int_Tables_number   1
_chemical_formula_structural   CuNiC2
_chemical_formula_sum   'Cu2 Ni2 C4'
_cell_volume   144.37704005
_cell_formula_units_Z   2
loop_
 _symmetry_equiv_pos_site_id
 _symmetry_equiv_pos_as_xyz
  1  'x, y, z'
loop_
 _atom_site_type_symbol
 _atom_site_label
 _atom_site_symmetry_multiplicity
 _atom_site_fract_x
 _atom_site_fract_y
 _atom_site_fract_z
 _atom_site_occupancy
  C  C0  1  0.61869500  0.61869500  0.14391500  1
  C  C1  1  0.38130500  0.38130500  0.85608500  1
  Ni  Ni2  1  0.19612300  0.19612300  0.41163100  1
  Ni  Ni3  1  0.80387700  0.80387700  0.58836900  1
  Cu  Cu4  1  0.11418000  0.11418000  0.65746000  1
  Cu  Cu5  1  0.88582000  0.88582000  0.34254000  1
  C  C6  1  0.69493300  0.69493300  0.91520100  1
  C  C7  1  0.30506700  0.30506700  0.08479900  1
