# generated using pymatgen
data_CuNi7C4
_symmetry_space_group_name_H-M   'P 1'
_cell_length_a   5.99679900
_cell_length_b   4.64283200
_cell_length_c   9.26691834
_cell_angle_alpha   88.13092055
_cell_angle_beta   90.00000000
_cell_angle_gamma   90.00000000
_symmetry_Int_Tables_number   1
_chemical_formula_structural   CuNi7C4
_chemical_formula_sum   'Cu2 Ni14 C8'
_cell_volume   257.87347668
_cell_formula_units_Z   2
loop_
 _symmetry_equiv_pos_site_id
 _symmetry_equiv_pos_as_xyz
  1  'x, y, z'
loop_
 _atom_site_type_symbol
 _atom_site_label
 _atom_site_symmetry_multiplicity
 _atom_site_fract_x
 _atom_site_fract_y
 _atom_site_fract_z
 _atom_site_occupancy
  C  C0  1  0.99509800  0.98191200  0.74258100  1
  C  C1  1  0.50490200  0.98191200  0.74258100  1
  C  C2  1  0.00490200  0.01808800  0.25741900  1
  C  C3  1  0.49509800  0.01808800  0.25741900  1
  C  C4  1  0.25000000  0.50220700  0.50068900  1
  C  C5  1  0.75000000  0.49779300  0.49931100  1
  C  C6  1  0.25000000  0.52912300  0.01481700  1
  C  C7  1  0.75000000  0.47087700  0.98518300  1
  Ni  Ni8  1  0.25000000  0.21096100  0.35419500  1
  Ni  Ni9  1  0.75000000  0.19468600  0.34715700  1
  Ni  Ni10  1  0.75000000  0.17267400  0.83789000  1
  Ni  Ni11  1  0.00145700  0.30508000  0.59548300  1
  Ni  Ni12  1  0.49854300  0.30508000  0.59548300  1
  Ni  Ni13  1  0.99842000  0.31405200  0.09683300  1
  Ni  Ni14  1  0.50158000  0.31405200  0.09683300  1
  Ni  Ni15  1  0.99854300  0.69492000  0.40451700  1
  Ni  Ni16  1  0.50145700  0.69492000  0.40451700  1
  Ni  Ni17  1  0.00158000  0.68594800  0.90316700  1
  Ni  Ni18  1  0.49842000  0.68594800  0.90316700  1
  Ni  Ni19  1  0.25000000  0.80531400  0.65284300  1
  Ni  Ni20  1  0.75000000  0.78903900  0.64580500  1
  Ni  Ni21  1  0.25000000  0.82732600  0.16211000  1
  Cu  Cu22  1  0.25000000  0.18858800  0.84812300  1
  Cu  Cu23  1  0.75000000  0.81141200  0.15187700  1
