# generated using pymatgen
data_Cu2NiC
_symmetry_space_group_name_H-M   'P 1'
_cell_length_a   9.00192091
_cell_length_b   9.00192091
_cell_length_c   4.23524300
_cell_angle_alpha   90.00000000
_cell_angle_beta   90.00000000
_cell_angle_gamma   152.50527621
_symmetry_Int_Tables_number   1
_chemical_formula_structural   Cu2NiC
_chemical_formula_sum   'Cu4 Ni2 C2'
_cell_volume   158.44461552
_cell_formula_units_Z   2
loop_
 _symmetry_equiv_pos_site_id
 _symmetry_equiv_pos_as_xyz
  1  'x, y, z'
loop_
 _atom_site_type_symbol
 _atom_site_label
 _atom_site_symmetry_multiplicity
 _atom_site_fract_x
 _atom_site_fract_y
 _atom_site_fract_z
 _atom_site_occupancy
  C  C0  1  0.89615000  0.10385000  0.75000000  1
  C  C1  1  0.10385000  0.89615000  0.25000000  1
  Ni  Ni2  1  0.67526500  0.32473500  0.75000000  1
  Ni  Ni3  1  0.32473500  0.67526500  0.25000000  1
  Cu  Cu4  1  0.24913700  0.75086300  0.75000000  1
  Cu  Cu5  1  0.75086300  0.24913700  0.25000000  1
  Cu  Cu6  1  0.53887900  0.46112100  0.75000000  1
  Cu  Cu7  1  0.46112100  0.53887900  0.25000000  1
