# generated using pymatgen
data_Cu5Ni3C2
_symmetry_space_group_name_H-M   'P 1'
_cell_length_a   7.84066209
_cell_length_b   7.84066209
_cell_length_c   7.84066209
_cell_angle_alpha   139.09395927
_cell_angle_beta   105.44885028
_cell_angle_gamma   88.73008163
_symmetry_Int_Tables_number   1
_chemical_formula_structural   Cu5Ni3C2
_chemical_formula_sum   'Cu10 Ni6 C4'
_cell_volume   291.71315237
_cell_formula_units_Z   2
loop_
 _symmetry_equiv_pos_site_id
 _symmetry_equiv_pos_as_xyz
  1  'x, y, z'
loop_
 _atom_site_type_symbol
 _atom_site_label
 _atom_site_symmetry_multiplicity
 _atom_site_fract_x
 _atom_site_fract_y
 _atom_site_fract_z
 _atom_site_occupancy
  C  C0  1  0.36777800  0.63519600  0.73258200  1
  C  C1  1  0.90261500  0.13519600  0.76741800  1
  C  C2  1  0.09738500  0.86480400  0.23258200  1
  C  C3  1  0.63222200  0.36480400  0.26741800  1
  Ni  Ni4  1  0.02990900  0.63863600  0.39127300  1
  Ni  Ni5  1  0.97009100  0.36136400  0.60872700  1
  Ni  Ni6  1  0.50000000  0.75000000  0.25000000  1
  Ni  Ni7  1  0.50000000  0.25000000  0.75000000  1
  Ni  Ni8  1  0.24736200  0.13863600  0.10872700  1
  Ni  Ni9  1  0.75263800  0.86136400  0.89127300  1
  Cu  Cu10  1  0.27483400  0.52483400  0.25000000  1
  Cu  Cu11  1  0.72516600  0.97516600  0.25000000  1
  Cu  Cu12  1  0.00000000  0.75000000  0.75000000  1
  Cu  Cu13  1  0.23986000  0.39986100  0.83999900  1
  Cu  Cu14  1  0.76014000  0.60013900  0.16000100  1
  Cu  Cu15  1  0.44013900  0.10013900  0.33999900  1
  Cu  Cu16  1  0.00000000  0.25000000  0.25000000  1
  Cu  Cu17  1  0.55986100  0.89986100  0.66000100  1
  Cu  Cu18  1  0.72516600  0.47516600  0.75000000  1
  Cu  Cu19  1  0.27483400  0.02483400  0.75000000  1
