# generated using pymatgen
data_CuNiC
_symmetry_space_group_name_H-M   'P 1'
_cell_length_a   6.92089908
_cell_length_b   6.92089908
_cell_length_c   6.92089881
_cell_angle_alpha   32.96597502
_cell_angle_beta   32.96597502
_cell_angle_gamma   32.96597339
_symmetry_Int_Tables_number   1
_chemical_formula_structural   CuNiC
_chemical_formula_sum   'Cu2 Ni2 C2'
_cell_volume   87.34423917
_cell_formula_units_Z   2
loop_
 _symmetry_equiv_pos_site_id
 _symmetry_equiv_pos_as_xyz
  1  'x, y, z'
loop_
 _atom_site_type_symbol
 _atom_site_label
 _atom_site_symmetry_multiplicity
 _atom_site_fract_x
 _atom_site_fract_y
 _atom_site_fract_z
 _atom_site_occupancy
  C  C0  1  0.75872300  0.75872300  0.75872300  1
  C  C1  1  0.24127700  0.24127700  0.24127700  1
  Ni  Ni2  1  0.87796900  0.87796900  0.87796900  1
  Ni  Ni3  1  0.12203100  0.12203100  0.12203100  1
  Cu  Cu4  1  0.37016800  0.37016800  0.37016800  1
  Cu  Cu5  1  0.62983200  0.62983200  0.62983200  1
