# generated using pymatgen
data_Cu4Ni4C
_symmetry_space_group_name_H-M   'P 1'
_cell_length_a   7.74708800
_cell_length_b   7.74708800
_cell_length_c   3.99082700
_cell_angle_alpha   90.00000000
_cell_angle_beta   90.00000000
_cell_angle_gamma   90.00000000
_symmetry_Int_Tables_number   1
_chemical_formula_structural   Cu4Ni4C
_chemical_formula_sum   'Cu8 Ni8 C2'
_cell_volume   239.51895056
_cell_formula_units_Z   2
loop_
 _symmetry_equiv_pos_site_id
 _symmetry_equiv_pos_as_xyz
  1  'x, y, z'
loop_
 _atom_site_type_symbol
 _atom_site_label
 _atom_site_symmetry_multiplicity
 _atom_site_fract_x
 _atom_site_fract_y
 _atom_site_fract_z
 _atom_site_occupancy
  C  C0  1  0.50000000  0.50000000  0.00000000  1
  C  C1  1  0.00000000  0.00000000  0.50000000  1
  Ni  Ni2  1  0.65851200  0.77974500  0.60683000  1
  Ni  Ni3  1  0.15851200  0.27974500  0.89317000  1
  Ni  Ni4  1  0.27974500  0.84148800  0.10683000  1
  Ni  Ni5  1  0.72025500  0.15851200  0.10683000  1
  Ni  Ni6  1  0.34148800  0.22025500  0.60683000  1
  Ni  Ni7  1  0.84148800  0.72025500  0.89317000  1
  Ni  Ni8  1  0.22025500  0.65851200  0.39317000  1
  Ni  Ni9  1  0.77974500  0.34148800  0.39317000  1
  Cu  Cu10  1  0.34144500  0.10960400  0.10687400  1
  Cu  Cu11  1  0.65855500  0.89039600  0.10687400  1
  Cu  Cu12  1  0.60960400  0.15855500  0.60687400  1
  Cu  Cu13  1  0.10960400  0.65855500  0.89312600  1
  Cu  Cu14  1  0.15855500  0.39039600  0.39312600  1
  Cu  Cu15  1  0.84144500  0.60960400  0.39312600  1
  Cu  Cu16  1  0.89039600  0.34144500  0.89312600  1
  Cu  Cu17  1  0.39039600  0.84144500  0.60687400  1
