# generated using pymatgen
data_Cu2NiC
_symmetry_space_group_name_H-M   'P 1'
_cell_length_a   10.64400008
_cell_length_b   10.64400008
_cell_length_c   3.47542874
_cell_angle_alpha   89.85585285
_cell_angle_beta   89.85585285
_cell_angle_gamma   151.90852776
_symmetry_Int_Tables_number   1
_chemical_formula_structural   Cu2NiC
_chemical_formula_sum   'Cu4 Ni2 C2'
_cell_volume   185.39822517
_cell_formula_units_Z   2
loop_
 _symmetry_equiv_pos_site_id
 _symmetry_equiv_pos_as_xyz
  1  'x, y, z'
loop_
 _atom_site_type_symbol
 _atom_site_label
 _atom_site_symmetry_multiplicity
 _atom_site_fract_x
 _atom_site_fract_y
 _atom_site_fract_z
 _atom_site_occupancy
  C  C0  1  0.50000000  0.00000000  0.00000000  1
  C  C1  1  0.00000000  0.50000000  0.50000000  1
  Ni  Ni2  1  0.66177000  0.33823000  0.25000000  1
  Ni  Ni3  1  0.33823000  0.66177000  0.75000000  1
  Cu  Cu4  1  0.08613000  0.15229000  0.24823000  1
  Cu  Cu5  1  0.84771000  0.91387000  0.25177000  1
  Cu  Cu6  1  0.15229000  0.08613000  0.74823000  1
  Cu  Cu7  1  0.91387000  0.84771000  0.75177000  1
