# generated using pymatgen
data_Cu2NiC9
_symmetry_space_group_name_H-M   'P 1'
_cell_length_a   8.26416500
_cell_length_b   8.26416500
_cell_length_c   5.37278800
_cell_angle_alpha   90.00000000
_cell_angle_beta   90.00000000
_cell_angle_gamma   90.00000000
_symmetry_Int_Tables_number   1
_chemical_formula_structural   Cu2NiC9
_chemical_formula_sum   'Cu4 Ni2 C18'
_cell_volume   366.94220273
_cell_formula_units_Z   2
loop_
 _symmetry_equiv_pos_site_id
 _symmetry_equiv_pos_as_xyz
  1  'x, y, z'
loop_
 _atom_site_type_symbol
 _atom_site_label
 _atom_site_symmetry_multiplicity
 _atom_site_fract_x
 _atom_site_fract_y
 _atom_site_fract_z
 _atom_site_occupancy
  C  C0  1  0.33486800  0.83486800  0.49186500  1
  C  C1  1  0.66513200  0.16513200  0.49186500  1
  C  C2  1  0.16513200  0.33486800  0.50813500  1
  C  C3  1  0.83486800  0.66513200  0.50813500  1
  Ni  Ni4  1  0.00000000  0.00000000  0.00000000  1
  Ni  Ni5  1  0.50000000  0.50000000  0.00000000  1
  Cu  Cu6  1  0.14326300  0.64326300  0.05046300  1
  Cu  Cu7  1  0.85673700  0.35673700  0.05046300  1
  Cu  Cu8  1  0.35673700  0.14326300  0.94953700  1
  Cu  Cu9  1  0.64326300  0.85673700  0.94953700  1
  C  C10  1  0.00000000  0.50000000  0.18432800  1
  C  C11  1  0.08236100  0.82200400  0.20667200  1
  C  C12  1  0.32200400  0.58236100  0.20667200  1
  C  C13  1  0.67799600  0.41763900  0.20667200  1
  C  C14  1  0.91763900  0.17799600  0.20667200  1
  C  C15  1  0.36107100  0.13892900  0.27380900  1
  C  C16  1  0.63892900  0.86107100  0.27380900  1
  C  C17  1  0.13892900  0.63892900  0.72619100  1
  C  C18  1  0.86107100  0.36107100  0.72619100  1
  C  C19  1  0.17799600  0.08236100  0.79332800  1
  C  C20  1  0.41763900  0.32200400  0.79332800  1
  C  C21  1  0.58236100  0.67799600  0.79332800  1
  C  C22  1  0.82200400  0.91763900  0.79332800  1
  C  C23  1  0.50000000  0.00000000  0.81567200  1
