# generated using pymatgen
data_CuNi3C23
_symmetry_space_group_name_H-M   'P 1'
_cell_length_a   11.82070404
_cell_length_b   11.82070404
_cell_length_c   6.79950200
_cell_angle_alpha   90.00000000
_cell_angle_beta   90.00000000
_cell_angle_gamma   120.00000022
_symmetry_Int_Tables_number   1
_chemical_formula_structural   CuNi3C23
_chemical_formula_sum   'Cu2 Ni6 C46'
_cell_volume   822.80026756
_cell_formula_units_Z   2
loop_
 _symmetry_equiv_pos_site_id
 _symmetry_equiv_pos_as_xyz
  1  'x, y, z'
loop_
 _atom_site_type_symbol
 _atom_site_label
 _atom_site_symmetry_multiplicity
 _atom_site_fract_x
 _atom_site_fract_y
 _atom_site_fract_z
 _atom_site_occupancy
  C  C0  1  0.34537700  0.17268900  0.15718700  1
  C  C1  1  0.17268900  0.34537700  0.65718700  1
  C  C2  1  0.17268900  0.82731100  0.65718700  1
  C  C3  1  0.82731100  0.17268900  0.15718700  1
  C  C4  1  0.65462300  0.82731100  0.65718700  1
  C  C5  1  0.82731100  0.65462300  0.15718700  1
  C  C6  1  0.33333300  0.66666700  0.33649400  1
  C  C7  1  0.66666700  0.33333300  0.83649400  1
  C  C8  1  0.00000000  0.00000000  0.34158300  1
  C  C9  1  0.52260300  0.47739700  0.49777000  1
  C  C10  1  0.47739700  0.95479400  0.99777000  1
  C  C11  1  0.52260300  0.04520600  0.49777000  1
  C  C12  1  0.95479400  0.47739700  0.49777000  1
  C  C13  1  0.00000000  0.00000000  0.84158300  1
  C  C14  1  0.04520600  0.52260300  0.99777000  1
  C  C15  1  0.47739700  0.52260300  0.99777000  1
  Ni  Ni16  1  0.65744200  0.82872100  0.17439800  1
  Ni  Ni17  1  0.82872100  0.65744200  0.67439800  1
  Ni  Ni18  1  0.82872100  0.17127900  0.67439800  1
  Ni  Ni19  1  0.17127900  0.82872100  0.17439800  1
  Ni  Ni20  1  0.17127900  0.34255800  0.17439800  1
  Ni  Ni21  1  0.34255800  0.17127900  0.67439800  1
  Cu  Cu22  1  0.33333300  0.66666700  0.81447300  1
  Cu  Cu23  1  0.66666700  0.33333300  0.31447300  1
  C  C24  1  0.83461700  0.91730900  0.07054300  1
  C  C25  1  0.91730900  0.83461700  0.57054300  1
  C  C26  1  0.91730900  0.08269100  0.57054300  1
  C  C27  1  0.08269100  0.91730900  0.07054300  1
  C  C28  1  0.08269100  0.16538300  0.07054300  1
  C  C29  1  0.16538300  0.08269100  0.57054300  1
  C  C30  1  0.60418300  0.66050900  0.29918100  1
  C  C31  1  0.33949100  0.94367400  0.29918100  1
  C  C32  1  0.05632600  0.39581700  0.29918100  1
  C  C33  1  0.94367400  0.60418300  0.79918100  1
  C  C34  1  0.39581700  0.33949100  0.79918100  1
  C  C35  1  0.66050900  0.05632600  0.79918100  1
  C  C36  1  0.60418300  0.94367400  0.29918100  1
  C  C37  1  0.66050900  0.60418300  0.79918100  1
  C  C38  1  0.94367400  0.33949100  0.79918100  1
  C  C39  1  0.05632600  0.66050900  0.29918100  1
  C  C40  1  0.33949100  0.39581700  0.29918100  1
  C  C41  1  0.39581700  0.05632600  0.79918100  1
  C  C42  1  0.49797100  0.74898500  0.98803000  1
  C  C43  1  0.74898500  0.49797100  0.48803000  1
  C  C44  1  0.74898500  0.25101500  0.48803000  1
  C  C45  1  0.25101500  0.74898500  0.98803000  1
  C  C46  1  0.25101500  0.50202900  0.98803000  1
  C  C47  1  0.50202900  0.25101500  0.48803000  1
  C  C48  1  0.83530500  0.41765300  0.15540500  1
  C  C49  1  0.41765300  0.83530500  0.65540500  1
  C  C50  1  0.41765300  0.58234700  0.65540500  1
  C  C51  1  0.58234700  0.41765300  0.15540500  1
  C  C52  1  0.58234700  0.16469500  0.15540500  1
  C  C53  1  0.16469500  0.58234700  0.65540500  1
