# generated using pymatgen
data_CuNiC3
_symmetry_space_group_name_H-M   'P 1'
_cell_length_a   8.48719533
_cell_length_b   8.48719533
_cell_length_c   8.48719593
_cell_angle_alpha   54.24467122
_cell_angle_beta   54.24467122
_cell_angle_gamma   54.24467668
_symmetry_Int_Tables_number   1
_chemical_formula_structural   CuNiC3
_chemical_formula_sum   'Cu2 Ni2 C6'
_cell_volume   374.23220822
_cell_formula_units_Z   2
loop_
 _symmetry_equiv_pos_site_id
 _symmetry_equiv_pos_as_xyz
  1  'x, y, z'
loop_
 _atom_site_type_symbol
 _atom_site_label
 _atom_site_symmetry_multiplicity
 _atom_site_fract_x
 _atom_site_fract_y
 _atom_site_fract_z
 _atom_site_occupancy
  Ni  Ni0  1  0.85950700  0.85950700  0.85950700  1
  Ni  Ni1  1  0.14049300  0.14049300  0.14049300  1
  Cu  Cu2  1  0.65641700  0.65641700  0.65641700  1
  Cu  Cu3  1  0.34358300  0.34358300  0.34358300  1
  C  C4  1  0.70370300  0.05456100  0.46791500  1
  C  C5  1  0.46791500  0.70370300  0.05456100  1
  C  C6  1  0.05456100  0.46791500  0.70370300  1
  C  C7  1  0.29629700  0.94543900  0.53208500  1
  C  C8  1  0.94543900  0.53208500  0.29629700  1
  C  C9  1  0.53208500  0.29629700  0.94543900  1
