# generated using pymatgen
data_Cu2NiC4
_symmetry_space_group_name_H-M   'P 1'
_cell_length_a   5.59908686
_cell_length_b   5.59908686
_cell_length_c   9.02812104
_cell_angle_alpha   71.93525441
_cell_angle_beta   71.93525441
_cell_angle_gamma   60.00001347
_symmetry_Int_Tables_number   1
_chemical_formula_structural   Cu2NiC4
_chemical_formula_sum   'Cu2 Ni1 C4'
_cell_volume   228.85935047
_cell_formula_units_Z   1
loop_
 _symmetry_equiv_pos_site_id
 _symmetry_equiv_pos_as_xyz
  1  'x, y, z'
loop_
 _atom_site_type_symbol
 _atom_site_label
 _atom_site_symmetry_multiplicity
 _atom_site_fract_x
 _atom_site_fract_y
 _atom_site_fract_z
 _atom_site_occupancy
  C  C0  1  0.62312400  0.62312400  0.13062800  1
  C  C1  1  0.37687600  0.37687600  0.86937200  1
  C  C2  1  0.79140100  0.79140100  0.62579700  1
  C  C3  1  0.20859900  0.20859900  0.37420300  1
  Ni  Ni4  1  0.00000000  0.00000000  0.00000000  1
  Cu  Cu5  1  0.92109000  0.92109000  0.23673000  1
  Cu  Cu6  1  0.07891000  0.07891000  0.76327000  1
