# generated using pymatgen
data_CuNiC3
_symmetry_space_group_name_H-M   'P 1'
_cell_length_a   5.32810371
_cell_length_b   5.32810371
_cell_length_c   5.32192970
_cell_angle_alpha   89.22621218
_cell_angle_beta   89.22621218
_cell_angle_gamma   89.16190864
_symmetry_Int_Tables_number   1
_chemical_formula_structural   CuNiC3
_chemical_formula_sum   'Cu1 Ni1 C3'
_cell_volume   151.03928858
_cell_formula_units_Z   1
loop_
 _symmetry_equiv_pos_site_id
 _symmetry_equiv_pos_as_xyz
  1  'x, y, z'
loop_
 _atom_site_type_symbol
 _atom_site_label
 _atom_site_symmetry_multiplicity
 _atom_site_fract_x
 _atom_site_fract_y
 _atom_site_fract_z
 _atom_site_occupancy
  Ni  Ni0  1  0.98908900  0.98908900  0.00901700  1
  Cu  Cu1  1  0.48050100  0.48050100  0.46745900  1
  C  C2  1  0.49695200  0.02001900  0.47689000  1
  C  C3  1  0.50313400  0.50313400  0.00561300  1
  C  C4  1  0.02001900  0.49695200  0.47689000  1
