# generated using pymatgen
data_Cu2Ni
_symmetry_space_group_name_H-M   'P 1'
_cell_length_a   4.08241800
_cell_length_b   8.24061529
_cell_length_c   9.51033328
_cell_angle_alpha   81.50244273
_cell_angle_beta   77.60614082
_cell_angle_gamma   75.65848666
_symmetry_Int_Tables_number   1
_chemical_formula_structural   Cu2Ni
_chemical_formula_sum   'Cu8 Ni4'
_cell_volume   301.23199048
_cell_formula_units_Z   4
loop_
 _symmetry_equiv_pos_site_id
 _symmetry_equiv_pos_as_xyz
  1  'x, y, z'
loop_
 _atom_site_type_symbol
 _atom_site_label
 _atom_site_symmetry_multiplicity
 _atom_site_fract_x
 _atom_site_fract_y
 _atom_site_fract_z
 _atom_site_occupancy
  Ni  Ni0  1  0.70252800  0.69668300  0.89826100  1
  Ni  Ni1  1  0.29747200  0.30331700  0.10173900  1
  Ni  Ni2  1  0.39269700  0.82680300  0.38780300  1
  Ni  Ni3  1  0.60730300  0.17319700  0.61219700  1
  Cu  Cu4  1  0.03626500  0.87784500  0.04962500  1
  Cu  Cu5  1  0.96373500  0.12215500  0.95037500  1
  Cu  Cu6  1  0.92353600  0.61911800  0.53381000  1
  Cu  Cu7  1  0.07646400  0.38088200  0.46619000  1
  Cu  Cu8  1  0.65733300  0.52776700  0.15756700  1
  Cu  Cu9  1  0.34266700  0.47223300  0.84243300  1
  Cu  Cu10  1  0.21223800  0.92465400  0.65087000  1
  Cu  Cu11  1  0.78776200  0.07534600  0.34913000  1
