# generated using pymatgen
data_Cu4NiC3
_symmetry_space_group_name_H-M   'P 1'
_cell_length_a   6.21318400
_cell_length_b   8.13245400
_cell_length_c   13.18362400
_cell_angle_alpha   90.00000000
_cell_angle_beta   90.00000000
_cell_angle_gamma   90.00000000
_symmetry_Int_Tables_number   1
_chemical_formula_structural   Cu4NiC3
_chemical_formula_sum   'Cu16 Ni4 C12'
_cell_volume   666.14786295
_cell_formula_units_Z   4
loop_
 _symmetry_equiv_pos_site_id
 _symmetry_equiv_pos_as_xyz
  1  'x, y, z'
loop_
 _atom_site_type_symbol
 _atom_site_label
 _atom_site_symmetry_multiplicity
 _atom_site_fract_x
 _atom_site_fract_y
 _atom_site_fract_z
 _atom_site_occupancy
  C  C0  1  0.38904100  0.03172000  0.33209700  1
  C  C1  1  0.61095900  0.96828000  0.66790300  1
  C  C2  1  0.88904100  0.96828000  0.16790300  1
  C  C3  1  0.11095900  0.03172000  0.83209700  1
  C  C4  1  0.61095900  0.53172000  0.66790300  1
  C  C5  1  0.38904100  0.46828000  0.33209700  1
  C  C6  1  0.11095900  0.46828000  0.83209700  1
  C  C7  1  0.88904100  0.53172000  0.16790300  1
  C  C8  1  0.50000000  0.00000000  0.00000000  1
  C  C9  1  0.00000000  0.00000000  0.50000000  1
  C  C10  1  0.50000000  0.50000000  0.00000000  1
  C  C11  1  0.00000000  0.50000000  0.50000000  1
  Ni  Ni12  1  0.15380000  0.25000000  0.08924300  1
  Ni  Ni13  1  0.84620000  0.75000000  0.91075700  1
  Ni  Ni14  1  0.65380000  0.75000000  0.41075700  1
  Ni  Ni15  1  0.34620000  0.25000000  0.58924300  1
  Cu  Cu16  1  0.82583800  0.25000000  0.10136400  1
  Cu  Cu17  1  0.17416200  0.75000000  0.89863600  1
  Cu  Cu18  1  0.32583800  0.75000000  0.39863600  1
  Cu  Cu19  1  0.67416200  0.25000000  0.60136400  1
  Cu  Cu20  1  0.27280700  0.25000000  0.94052700  1
  Cu  Cu21  1  0.72719300  0.75000000  0.05947300  1
  Cu  Cu22  1  0.77280700  0.75000000  0.55947300  1
  Cu  Cu23  1  0.22719300  0.25000000  0.44052700  1
  Cu  Cu24  1  0.27325200  0.03760200  0.15243800  1
  Cu  Cu25  1  0.72674800  0.96239800  0.84756200  1
  Cu  Cu26  1  0.77325200  0.96239800  0.34756200  1
  Cu  Cu27  1  0.22674800  0.03760200  0.65243800  1
  Cu  Cu28  1  0.72674800  0.53760200  0.84756200  1
  Cu  Cu29  1  0.27325200  0.46239800  0.15243800  1
  Cu  Cu30  1  0.22674800  0.46239800  0.65243800  1
  Cu  Cu31  1  0.77325200  0.53760200  0.34756200  1
