# generated using pymatgen
data_Cu6Ni4C5
_symmetry_space_group_name_H-M   'P 1'
_cell_length_a   8.71964746
_cell_length_b   8.71964746
_cell_length_c   12.19578929
_cell_angle_alpha   64.84131125
_cell_angle_beta   64.84131125
_cell_angle_gamma   51.23884703
_symmetry_Int_Tables_number   1
_chemical_formula_structural   Cu6Ni4C5
_chemical_formula_sum   'Cu12 Ni8 C10'
_cell_volume   637.64376091
_cell_formula_units_Z   2
loop_
 _symmetry_equiv_pos_site_id
 _symmetry_equiv_pos_as_xyz
  1  'x, y, z'
loop_
 _atom_site_type_symbol
 _atom_site_label
 _atom_site_symmetry_multiplicity
 _atom_site_fract_x
 _atom_site_fract_y
 _atom_site_fract_z
 _atom_site_occupancy
  C  C0  1  0.16796300  0.83203700  0.75000000  1
  C  C1  1  0.83203700  0.16796300  0.25000000  1
  C  C2  1  0.05566300  0.34302100  0.82473600  1
  C  C3  1  0.65697900  0.94433700  0.67526400  1
  C  C4  1  0.94433700  0.65697900  0.17526400  1
  C  C5  1  0.34302100  0.05566300  0.32473600  1
  C  C6  1  0.66473200  0.23283400  0.97293200  1
  C  C7  1  0.76716600  0.33526800  0.52706800  1
  C  C8  1  0.33526800  0.76716600  0.02706800  1
  C  C9  1  0.23283400  0.66473200  0.47293200  1
  Ni  Ni10  1  0.67416400  0.57548900  0.72921800  1
  Ni  Ni11  1  0.42451100  0.32583600  0.77078200  1
  Ni  Ni12  1  0.32583600  0.42451100  0.27078200  1
  Ni  Ni13  1  0.57548900  0.67416400  0.22921800  1
  Ni  Ni14  1  0.25778900  0.15001300  0.61007700  1
  Ni  Ni15  1  0.84998700  0.74221100  0.88992300  1
  Ni  Ni16  1  0.74221100  0.84998700  0.38992300  1
  Ni  Ni17  1  0.15001300  0.25778900  0.11007700  1
  Cu  Cu18  1  0.91856700  0.09204000  0.87850400  1
  Cu  Cu19  1  0.90796000  0.08143300  0.62149600  1
  Cu  Cu20  1  0.08143300  0.90796000  0.12149600  1
  Cu  Cu21  1  0.09204000  0.91856700  0.37850400  1
  Cu  Cu22  1  0.33340800  0.96198300  0.88425800  1
  Cu  Cu23  1  0.03801700  0.66659200  0.61574200  1
  Cu  Cu24  1  0.66659200  0.03801700  0.11574200  1
  Cu  Cu25  1  0.96198300  0.33340800  0.38425800  1
  Cu  Cu26  1  0.27699100  0.63964500  0.97647800  1
  Cu  Cu27  1  0.36035500  0.72300900  0.52352200  1
  Cu  Cu28  1  0.72300900  0.36035500  0.02352200  1
  Cu  Cu29  1  0.63964500  0.27699100  0.47647800  1
