# generated using pymatgen
data_CuNiC
_symmetry_space_group_name_H-M   'P 1'
_cell_length_a   4.51251200
_cell_length_b   5.75975862
_cell_length_c   5.75975862
_cell_angle_alpha   79.55913341
_cell_angle_beta   66.93796605
_cell_angle_gamma   66.93796605
_symmetry_Int_Tables_number   1
_chemical_formula_structural   CuNiC
_chemical_formula_sum   'Cu2 Ni2 C2'
_cell_volume   126.66176024
_cell_formula_units_Z   2
loop_
 _symmetry_equiv_pos_site_id
 _symmetry_equiv_pos_as_xyz
  1  'x, y, z'
loop_
 _atom_site_type_symbol
 _atom_site_label
 _atom_site_symmetry_multiplicity
 _atom_site_fract_x
 _atom_site_fract_y
 _atom_site_fract_z
 _atom_site_occupancy
  C  C0  1  0.28095500  0.21904500  0.21904500  1
  C  C1  1  0.40715600  0.59284400  0.59284400  1
  Ni  Ni2  1  0.67653400  0.99896000  0.64797300  1
  Ni  Ni3  1  0.67653300  0.64797300  0.99896100  1
  Cu  Cu4  1  0.00048100  0.20209100  0.79694700  1
  Cu  Cu5  1  0.00048100  0.79694700  0.20209100  1
