# generated using pymatgen
data_Cu4NiC8
_symmetry_space_group_name_H-M   'P 1'
_cell_length_a   5.75402100
_cell_length_b   6.21789649
_cell_length_c   7.95419985
_cell_angle_alpha   92.12646933
_cell_angle_beta   91.44311420
_cell_angle_gamma   91.38497793
_symmetry_Int_Tables_number   1
_chemical_formula_structural   Cu4NiC8
_chemical_formula_sum   'Cu8 Ni2 C16'
_cell_volume   284.20866128
_cell_formula_units_Z   2
loop_
 _symmetry_equiv_pos_site_id
 _symmetry_equiv_pos_as_xyz
  1  'x, y, z'
loop_
 _atom_site_type_symbol
 _atom_site_label
 _atom_site_symmetry_multiplicity
 _atom_site_fract_x
 _atom_site_fract_y
 _atom_site_fract_z
 _atom_site_occupancy
  C  C0  1  0.50000000  0.50000000  0.00000000  1
  C  C1  1  0.00000000  0.00000000  0.00000000  1
  C  C2  1  0.31349300  0.25352400  0.38806200  1
  C  C3  1  0.68650700  0.74647600  0.61193800  1
  Ni  Ni4  1  0.18738000  0.74860900  0.38212500  1
  Ni  Ni5  1  0.81262000  0.25139100  0.61787500  1
  Cu  Cu6  1  0.13154500  0.61096800  0.02613900  1
  Cu  Cu7  1  0.54058500  0.90514600  0.14926300  1
  Cu  Cu8  1  0.93763400  0.39696500  0.16738400  1
  Cu  Cu9  1  0.75042100  0.79455300  0.23120700  1
  Cu  Cu10  1  0.24957900  0.20544700  0.76879300  1
  Cu  Cu11  1  0.06236600  0.60303500  0.83261600  1
  Cu  Cu12  1  0.45941500  0.09485400  0.85073700  1
  Cu  Cu13  1  0.86845500  0.38903200  0.97386100  1
  C  C14  1  0.83300100  0.32452200  0.08146400  1
  C  C15  1  0.67591300  0.81942900  0.11842800  1
  C  C16  1  0.22532500  0.51511000  0.25438600  1
  C  C17  1  0.25834200  0.96768400  0.26155600  1
  C  C18  1  0.89398400  0.75746800  0.41747400  1
  C  C19  1  0.64828500  0.26374100  0.43849200  1
  C  C20  1  0.35171500  0.73625900  0.56150800  1
  C  C21  1  0.10601600  0.24253200  0.58252600  1
  C  C22  1  0.74165800  0.03231600  0.73844400  1
  C  C23  1  0.77467500  0.48489000  0.74561400  1
  C  C24  1  0.32408700  0.18057100  0.88157200  1
  C  C25  1  0.16699900  0.67547800  0.91853600  1
