# generated using pymatgen
data_CuNiC4
_symmetry_space_group_name_H-M   'P 1'
_cell_length_a   3.71095600
_cell_length_b   7.43886883
_cell_length_c   9.75999700
_cell_angle_alpha   90.00000000
_cell_angle_beta   90.00000000
_cell_angle_gamma   104.44379264
_symmetry_Int_Tables_number   1
_chemical_formula_structural   CuNiC4
_chemical_formula_sum   'Cu2 Ni2 C8'
_cell_volume   260.91193217
_cell_formula_units_Z   2
loop_
 _symmetry_equiv_pos_site_id
 _symmetry_equiv_pos_as_xyz
  1  'x, y, z'
loop_
 _atom_site_type_symbol
 _atom_site_label
 _atom_site_symmetry_multiplicity
 _atom_site_fract_x
 _atom_site_fract_y
 _atom_site_fract_z
 _atom_site_occupancy
  C  C0  1  0.00000000  0.00000000  0.50000000  1
  C  C1  1  0.00000000  0.00000000  0.00000000  1
  Ni  Ni2  1  0.25565300  0.51130600  0.25000000  1
  Ni  Ni3  1  0.74434700  0.48869400  0.75000000  1
  Cu  Cu4  1  0.46186500  0.92373000  0.75000000  1
  Cu  Cu5  1  0.53813500  0.07627000  0.25000000  1
  C  C6  1  0.38032000  0.76064000  0.54836700  1
  C  C7  1  0.61968000  0.23936000  0.45163300  1
  C  C8  1  0.61968000  0.23936000  0.04836700  1
  C  C9  1  0.06057900  0.12115800  0.75000000  1
  C  C10  1  0.93942100  0.87884200  0.25000000  1
  C  C11  1  0.38032000  0.76064000  0.95163300  1
