# generated using pymatgen
data_CuNiC3
_symmetry_space_group_name_H-M   'P 1'
_cell_length_a   6.05754000
_cell_length_b   4.87201300
_cell_length_c   7.53740250
_cell_angle_alpha   72.62018340
_cell_angle_beta   90.00000000
_cell_angle_gamma   90.00000000
_symmetry_Int_Tables_number   1
_chemical_formula_structural   CuNiC3
_chemical_formula_sum   'Cu2 Ni2 C6'
_cell_volume   212.29126129
_cell_formula_units_Z   2
loop_
 _symmetry_equiv_pos_site_id
 _symmetry_equiv_pos_as_xyz
  1  'x, y, z'
loop_
 _atom_site_type_symbol
 _atom_site_label
 _atom_site_symmetry_multiplicity
 _atom_site_fract_x
 _atom_site_fract_y
 _atom_site_fract_z
 _atom_site_occupancy
  Ni  Ni0  1  0.75000000  0.65291100  0.19129900  1
  Ni  Ni1  1  0.25000000  0.34708900  0.80870100  1
  Cu  Cu2  1  0.75000000  0.95070400  0.65311700  1
  Cu  Cu3  1  0.25000000  0.04929600  0.34688300  1
  C  C4  1  0.97076900  0.82822600  0.83587700  1
  C  C5  1  0.47076900  0.17177400  0.16412300  1
  C  C6  1  0.25000000  0.67640900  0.32349200  1
  C  C7  1  0.75000000  0.32359100  0.67650800  1
  C  C8  1  0.02923100  0.17177400  0.16412300  1
  C  C9  1  0.52923100  0.82822600  0.83587700  1
