# generated using pymatgen
data_CuNiC3
_symmetry_space_group_name_H-M   'P 1'
_cell_length_a   6.30839300
_cell_length_b   8.87790400
_cell_length_c   12.76673300
_cell_angle_alpha   90.00000000
_cell_angle_beta   90.00000000
_cell_angle_gamma   90.00000000
_symmetry_Int_Tables_number   1
_chemical_formula_structural   CuNiC3
_chemical_formula_sum   'Cu8 Ni8 C24'
_cell_volume   715.00480677
_cell_formula_units_Z   8
loop_
 _symmetry_equiv_pos_site_id
 _symmetry_equiv_pos_as_xyz
  1  'x, y, z'
loop_
 _atom_site_type_symbol
 _atom_site_label
 _atom_site_symmetry_multiplicity
 _atom_site_fract_x
 _atom_site_fract_y
 _atom_site_fract_z
 _atom_site_occupancy
  Ni  Ni0  1  0.25426200  0.00000000  0.87888000  1
  Ni  Ni1  1  0.75426200  0.00000000  0.62112000  1
  Ni  Ni2  1  0.74573800  0.00000000  0.12112000  1
  Ni  Ni3  1  0.24573800  0.00000000  0.37888000  1
  Ni  Ni4  1  0.25173200  0.50000000  0.87203900  1
  Ni  Ni5  1  0.75173200  0.50000000  0.62796100  1
  Ni  Ni6  1  0.74826800  0.50000000  0.12796100  1
  Ni  Ni7  1  0.24826800  0.50000000  0.37203900  1
  Cu  Cu8  1  0.74527700  0.25032800  0.87497600  1
  Cu  Cu9  1  0.24527700  0.74967200  0.62502400  1
  Cu  Cu10  1  0.25472300  0.25032800  0.12502400  1
  Cu  Cu11  1  0.75472300  0.74967200  0.37497600  1
  Cu  Cu12  1  0.25472300  0.74967200  0.12502400  1
  Cu  Cu13  1  0.75472300  0.25032800  0.37497600  1
  Cu  Cu14  1  0.74527700  0.74967200  0.87497600  1
  Cu  Cu15  1  0.24527700  0.25032800  0.62502400  1
  C  C16  1  0.73893900  0.00000000  0.84088700  1
  C  C17  1  0.23893900  0.00000000  0.65911300  1
  C  C18  1  0.26106100  0.00000000  0.15911300  1
  C  C19  1  0.76106100  0.00000000  0.34088700  1
  C  C20  1  0.71792900  0.50000000  0.90767700  1
  C  C21  1  0.21792900  0.50000000  0.59232300  1
  C  C22  1  0.28207100  0.50000000  0.09232300  1
  C  C23  1  0.78207100  0.50000000  0.40767700  1
  C  C24  1  0.97909300  0.28798300  0.74452800  1
  C  C25  1  0.47909300  0.71201700  0.75547200  1
  C  C26  1  0.02090700  0.28798300  0.25547200  1
  C  C27  1  0.52090700  0.71201700  0.24452800  1
  C  C28  1  0.02090700  0.71201700  0.25547200  1
  C  C29  1  0.52090700  0.28798300  0.24452800  1
  C  C30  1  0.97909300  0.71201700  0.74452800  1
  C  C31  1  0.47909300  0.28798300  0.75547200  1
  C  C32  1  0.00000000  0.20454900  0.50000000  1
  C  C33  1  0.50000000  0.79545100  0.00000000  1
  C  C34  1  0.00000000  0.79545100  0.50000000  1
  C  C35  1  0.50000000  0.20454900  0.00000000  1
  C  C36  1  0.00000000  0.21896400  0.00000000  1
  C  C37  1  0.50000000  0.78103600  0.50000000  1
  C  C38  1  0.00000000  0.78103600  0.00000000  1
  C  C39  1  0.50000000  0.21896400  0.50000000  1
