# generated using pymatgen
data_CuNi2C7
_symmetry_space_group_name_H-M   'P 1'
_cell_length_a   6.07038600
_cell_length_b   6.07343900
_cell_length_c   10.57444383
_cell_angle_alpha   55.01964159
_cell_angle_beta   90.00000000
_cell_angle_gamma   90.00000000
_symmetry_Int_Tables_number   1
_chemical_formula_structural   CuNi2C7
_chemical_formula_sum   'Cu2 Ni4 C14'
_cell_volume   319.43113511
_cell_formula_units_Z   2
loop_
 _symmetry_equiv_pos_site_id
 _symmetry_equiv_pos_as_xyz
  1  'x, y, z'
loop_
 _atom_site_type_symbol
 _atom_site_label
 _atom_site_symmetry_multiplicity
 _atom_site_fract_x
 _atom_site_fract_y
 _atom_site_fract_z
 _atom_site_occupancy
  Ni  Ni0  1  0.49568100  0.25073300  0.74988700  1
  Ni  Ni1  1  0.99568100  0.74926700  0.75011300  1
  Ni  Ni2  1  0.50431900  0.74926700  0.25011300  1
  Ni  Ni3  1  0.00431900  0.25073300  0.24988700  1
  Cu  Cu4  1  0.50000000  0.00000000  0.50000000  1
  Cu  Cu5  1  0.00000000  0.00000000  0.00000000  1
  C  C6  1  0.50000000  0.50000000  0.00000000  1
  C  C7  1  0.00000000  0.50000000  0.50000000  1
  C  C8  1  0.26159800  0.70258100  0.49390500  1
  C  C9  1  0.76159800  0.29741900  0.00609500  1
  C  C10  1  0.73840200  0.29741900  0.50609500  1
  C  C11  1  0.23840200  0.70258100  0.99390500  1
  C  C12  1  0.80332700  0.76803000  0.49330300  1
  C  C13  1  0.30332700  0.23197000  0.00669700  1
  C  C14  1  0.19667300  0.23197000  0.50669700  1
  C  C15  1  0.69667300  0.76803000  0.99330300  1
  C  C16  1  0.00128700  0.28351600  0.72987200  1
  C  C17  1  0.50128700  0.71648400  0.77012800  1
  C  C18  1  0.99871300  0.71648400  0.27012800  1
  C  C19  1  0.49871300  0.28351600  0.22987200  1
