# generated using pymatgen
data_CuNiC5
_symmetry_space_group_name_H-M   'P 1'
_cell_length_a   5.35197027
_cell_length_b   5.35197027
_cell_length_c   7.14300517
_cell_angle_alpha   73.42764705
_cell_angle_beta   73.42764705
_cell_angle_gamma   99.72046807
_symmetry_Int_Tables_number   1
_chemical_formula_structural   CuNiC5
_chemical_formula_sum   'Cu2 Ni2 C10'
_cell_volume   180.85099529
_cell_formula_units_Z   2
loop_
 _symmetry_equiv_pos_site_id
 _symmetry_equiv_pos_as_xyz
  1  'x, y, z'
loop_
 _atom_site_type_symbol
 _atom_site_label
 _atom_site_symmetry_multiplicity
 _atom_site_fract_x
 _atom_site_fract_y
 _atom_site_fract_z
 _atom_site_occupancy
  Ni  Ni0  1  0.00000000  0.00000000  0.50000000  1
  Ni  Ni1  1  0.00000000  0.00000000  0.00000000  1
  Cu  Cu2  1  0.33186300  0.66813700  0.25000000  1
  Cu  Cu3  1  0.66813700  0.33186300  0.75000000  1
  C  C4  1  0.62538000  0.74082400  0.09747100  1
  C  C5  1  0.25917600  0.37462000  0.40252900  1
  C  C6  1  0.37462000  0.25917600  0.90252900  1
  C  C7  1  0.74082400  0.62538000  0.59747100  1
  C  C8  1  0.09356100  0.90643900  0.75000000  1
  C  C9  1  0.90643900  0.09356100  0.25000000  1
  C  C10  1  0.31418600  0.86661200  0.37232500  1
  C  C11  1  0.13338800  0.68581400  0.12767500  1
  C  C12  1  0.68581400  0.13338800  0.62767500  1
  C  C13  1  0.86661200  0.31418600  0.87232500  1
