# generated using pymatgen
data_Cu(NiC3)2
_symmetry_space_group_name_H-M   'P 1'
_cell_length_a   4.11954100
_cell_length_b   8.39446840
_cell_length_c   8.39446840
_cell_angle_alpha   120.00000314
_cell_angle_beta   90.00000000
_cell_angle_gamma   90.00000000
_symmetry_Int_Tables_number   1
_chemical_formula_structural   Cu(NiC3)2
_chemical_formula_sum   'Cu1 Ni2 C6'
_cell_volume   251.40033067
_cell_formula_units_Z   1
loop_
 _symmetry_equiv_pos_site_id
 _symmetry_equiv_pos_as_xyz
  1  'x, y, z'
loop_
 _atom_site_type_symbol
 _atom_site_label
 _atom_site_symmetry_multiplicity
 _atom_site_fract_x
 _atom_site_fract_y
 _atom_site_fract_z
 _atom_site_occupancy
  C  C0  1  0.50000000  0.00000000  0.39494900  1
  C  C1  1  0.50000000  0.39494900  0.00000000  1
  C  C2  1  0.50000000  0.60505100  0.60505100  1
  C  C3  1  0.00000000  0.00000000  0.76356700  1
  C  C4  1  0.00000000  0.76356700  0.00000000  1
  C  C5  1  0.00000000  0.23643300  0.23643300  1
  Ni  Ni6  1  0.00000000  0.33333300  0.66666700  1
  Ni  Ni7  1  0.00000000  0.66666700  0.33333300  1
  Cu  Cu8  1  0.50000000  0.00000000  0.00000000  1
