# generated using pymatgen
data_CuNiC
_symmetry_space_group_name_H-M   'P 1'
_cell_length_a   6.09847700
_cell_length_b   6.11158400
_cell_length_c   6.11168900
_cell_angle_alpha   90.00000000
_cell_angle_beta   90.00000000
_cell_angle_gamma   90.00000000
_symmetry_Int_Tables_number   1
_chemical_formula_structural   CuNiC
_chemical_formula_sum   'Cu4 Ni4 C4'
_cell_volume   227.79092705
_cell_formula_units_Z   4
loop_
 _symmetry_equiv_pos_site_id
 _symmetry_equiv_pos_as_xyz
  1  'x, y, z'
loop_
 _atom_site_type_symbol
 _atom_site_label
 _atom_site_symmetry_multiplicity
 _atom_site_fract_x
 _atom_site_fract_y
 _atom_site_fract_z
 _atom_site_occupancy
  Ni  Ni0  1  0.63396300  0.37965900  0.38226700  1
  Ni  Ni1  1  0.36603700  0.62034100  0.88226700  1
  Ni  Ni2  1  0.63396300  0.12034100  0.88226700  1
  Ni  Ni3  1  0.36603700  0.87965900  0.38226700  1
  C  C4  1  0.76698700  0.51101400  0.99914900  1
  C  C5  1  0.23301300  0.48898600  0.49914900  1
  C  C6  1  0.76698700  0.98898600  0.49914900  1
  C  C7  1  0.23301300  0.01101400  0.99914900  1
  Cu  Cu8  1  0.12624200  0.11814900  0.62078400  1
  Cu  Cu9  1  0.87375800  0.88185100  0.12078400  1
  Cu  Cu10  1  0.12624200  0.38185100  0.12078400  1
  Cu  Cu11  1  0.87375800  0.61814900  0.62078400  1
