# generated using pymatgen
data_Cu12Ni16C
_symmetry_space_group_name_H-M   'P 1'
_cell_length_a   9.26526587
_cell_length_b   9.26526587
_cell_length_c   9.26526537
_cell_angle_alpha   110.12704647
_cell_angle_beta   110.12704647
_cell_angle_gamma   110.12705155
_symmetry_Int_Tables_number   1
_chemical_formula_structural   Cu12Ni16C
_chemical_formula_sum   'Cu12 Ni16 C1'
_cell_volume   596.95291859
_cell_formula_units_Z   1
loop_
 _symmetry_equiv_pos_site_id
 _symmetry_equiv_pos_as_xyz
  1  'x, y, z'
loop_
 _atom_site_type_symbol
 _atom_site_label
 _atom_site_symmetry_multiplicity
 _atom_site_fract_x
 _atom_site_fract_y
 _atom_site_fract_z
 _atom_site_occupancy
  C  C0  1  0.37264200  0.37264200  0.37264200  1
  Ni  Ni1  1  0.65332600  0.99591900  0.99591900  1
  Ni  Ni2  1  0.71847200  0.31634400  0.31634400  1
  Ni  Ni3  1  0.27861900  0.61402600  0.61402600  1
  Ni  Ni4  1  0.99458200  0.99458200  0.99458200  1
  Ni  Ni5  1  0.00162100  0.68910900  0.39311300  1
  Ni  Ni6  1  0.39311300  0.00162100  0.68910900  1
  Ni  Ni7  1  0.61402600  0.61402600  0.27861900  1
  Ni  Ni8  1  0.99591900  0.99591900  0.65332600  1
  Ni  Ni9  1  0.68910900  0.39311300  0.00162100  1
  Ni  Ni10  1  0.31634400  0.71847200  0.31634400  1
  Ni  Ni11  1  0.31634400  0.31634400  0.71847200  1
  Ni  Ni12  1  0.68910900  0.00162100  0.39311300  1
  Ni  Ni13  1  0.99591900  0.65332600  0.99591900  1
  Ni  Ni14  1  0.61402600  0.27861900  0.61402600  1
  Ni  Ni15  1  0.39311300  0.68910900  0.00162100  1
  Ni  Ni16  1  0.00162100  0.39311300  0.68910900  1
  Cu  Cu17  1  0.17228400  0.81069600  0.81069600  1
  Cu  Cu18  1  0.81128500  0.62822500  0.62822500  1
  Cu  Cu19  1  0.99983900  0.36477600  0.18571500  1
  Cu  Cu20  1  0.62822500  0.81128500  0.62822500  1
  Cu  Cu21  1  0.36477600  0.18571500  0.99983900  1
  Cu  Cu22  1  0.81069600  0.17228400  0.81069600  1
  Cu  Cu23  1  0.18571500  0.36477600  0.99983900  1
  Cu  Cu24  1  0.18571500  0.99983900  0.36477600  1
  Cu  Cu25  1  0.81069600  0.81069600  0.17228400  1
  Cu  Cu26  1  0.36477600  0.99983900  0.18571500  1
  Cu  Cu27  1  0.62822500  0.62822500  0.81128500  1
  Cu  Cu28  1  0.99983900  0.18571500  0.36477600  1
