# generated using pymatgen
data_Cu(NiC3)2
_symmetry_space_group_name_H-M   'P 1'
_cell_length_a   5.16956562
_cell_length_b   7.96480371
_cell_length_c   5.16705469
_cell_angle_alpha   71.93596868
_cell_angle_beta   87.94158089
_cell_angle_gamma   71.96678754
_symmetry_Int_Tables_number   1
_chemical_formula_structural   Cu(NiC3)2
_chemical_formula_sum   'Cu2 Ni4 C12'
_cell_volume   191.90397587
_cell_formula_units_Z   2
loop_
 _symmetry_equiv_pos_site_id
 _symmetry_equiv_pos_as_xyz
  1  'x, y, z'
loop_
 _atom_site_type_symbol
 _atom_site_label
 _atom_site_symmetry_multiplicity
 _atom_site_fract_x
 _atom_site_fract_y
 _atom_site_fract_z
 _atom_site_occupancy
  C  C0  1  0.50006000  0.50008400  0.99989700  1
  C  C1  1  0.49969900  0.00013900  0.00003700  1
  Ni  Ni2  1  0.99283300  0.99953300  0.72850200  1
  Ni  Ni3  1  0.77171600  0.50032700  0.50749100  1
  Ni  Ni4  1  0.22838700  0.49952000  0.49266000  1
  Ni  Ni5  1  0.00738300  0.00046600  0.27158100  1
  Cu  Cu6  1  0.19081700  0.24996200  0.30925900  1
  Cu  Cu7  1  0.80910700  0.75011900  0.69066400  1
  C  C8  1  0.43383300  0.25032100  0.06504600  1
  C  C9  1  0.56616300  0.74966400  0.93498300  1
  C  C10  1  0.13555700  0.06678000  0.17473900  1
  C  C11  1  0.32502800  0.43331700  0.36419100  1
  C  C12  1  0.67496400  0.56659100  0.63593700  1
  C  C13  1  0.86430200  0.93339800  0.82513600  1
  C  C14  1  0.24734900  0.10983400  0.63398900  1
  C  C15  1  0.86564400  0.38886800  0.25588900  1
  C  C16  1  0.13427700  0.61112400  0.74421200  1
  C  C17  1  0.75287900  0.88995400  0.36578000  1
