# generated using pymatgen
data_Cu6NiC
_symmetry_space_group_name_H-M   'P 1'
_cell_length_a   6.29309664
_cell_length_b   6.29309713
_cell_length_c   8.43052500
_cell_angle_alpha   90.00000000
_cell_angle_beta   90.00000000
_cell_angle_gamma   121.90423776
_symmetry_Int_Tables_number   1
_chemical_formula_structural   Cu6NiC
_chemical_formula_sum   'Cu24 Ni4 C4'
_cell_volume   283.43708167
_cell_formula_units_Z   4
loop_
 _symmetry_equiv_pos_site_id
 _symmetry_equiv_pos_as_xyz
  1  'x, y, z'
loop_
 _atom_site_type_symbol
 _atom_site_label
 _atom_site_symmetry_multiplicity
 _atom_site_fract_x
 _atom_site_fract_y
 _atom_site_fract_z
 _atom_site_occupancy
  C  C0  1  0.32444100  0.67555900  0.66014900  1
  C  C1  1  0.82444100  0.17555900  0.83985100  1
  C  C2  1  0.17555900  0.82444100  0.16014900  1
  C  C3  1  0.67555900  0.32444100  0.33985100  1
  Ni  Ni4  1  0.66566200  0.33433800  0.62040400  1
  Ni  Ni5  1  0.16566200  0.83433800  0.87959700  1
  Ni  Ni6  1  0.83433800  0.16566200  0.12040400  1
  Ni  Ni7  1  0.33433800  0.66566200  0.37959700  1
  Cu  Cu8  1  0.31344300  0.15517700  0.53145000  1
  Cu  Cu9  1  0.84482300  0.68655700  0.53145000  1
  Cu  Cu10  1  0.84812800  0.15187200  0.55609400  1
  Cu  Cu11  1  0.10040700  0.89959300  0.65040600  1
  Cu  Cu12  1  0.11967800  0.19840900  0.66570700  1
  Cu  Cu13  1  0.80159100  0.88032300  0.66570700  1
  Cu  Cu14  1  0.30159100  0.38032300  0.83429300  1
  Cu  Cu15  1  0.61967700  0.69840900  0.83429300  1
  Cu  Cu16  1  0.60040700  0.39959300  0.84959500  1
  Cu  Cu17  1  0.34812800  0.65187200  0.94390600  1
  Cu  Cu18  1  0.34482200  0.18655700  0.96855000  1
  Cu  Cu19  1  0.81344300  0.65517700  0.96855000  1
  Cu  Cu20  1  0.18655700  0.34482300  0.03145100  1
  Cu  Cu21  1  0.65517700  0.81344300  0.03145100  1
  Cu  Cu22  1  0.65187200  0.34812800  0.05609400  1
  Cu  Cu23  1  0.39959300  0.60040700  0.15040500  1
  Cu  Cu24  1  0.38032200  0.30159200  0.16570700  1
  Cu  Cu25  1  0.69840900  0.61967700  0.16570700  1
  Cu  Cu26  1  0.19840800  0.11967800  0.33429300  1
  Cu  Cu27  1  0.88032200  0.80159200  0.33429300  1
  Cu  Cu28  1  0.89959300  0.10040700  0.34959500  1
  Cu  Cu29  1  0.15187200  0.84812800  0.44390600  1
  Cu  Cu30  1  0.15517700  0.31344300  0.46855000  1
  Cu  Cu31  1  0.68655700  0.84482300  0.46855000  1
