# generated using pymatgen
data_Cu9Ni3C
_symmetry_space_group_name_H-M   'P 1'
_cell_length_a   5.78767100
_cell_length_b   8.18500300
_cell_length_c   8.18500366
_cell_angle_alpha   59.99999862
_cell_angle_beta   90.00000000
_cell_angle_gamma   90.00000000
_symmetry_Int_Tables_number   1
_chemical_formula_structural   Cu9Ni3C
_chemical_formula_sum   'Cu18 Ni6 C2'
_cell_volume   335.79342034
_cell_formula_units_Z   2
loop_
 _symmetry_equiv_pos_site_id
 _symmetry_equiv_pos_as_xyz
  1  'x, y, z'
loop_
 _atom_site_type_symbol
 _atom_site_label
 _atom_site_symmetry_multiplicity
 _atom_site_fract_x
 _atom_site_fract_y
 _atom_site_fract_z
 _atom_site_occupancy
  C  C0  1  0.17565200  0.17565200  0.82434800  1
  C  C1  1  0.82434800  0.82434800  0.17565200  1
  Ni  Ni2  1  0.71627400  0.12507300  0.57981800  1
  Ni  Ni3  1  0.42018200  0.71627400  0.87492700  1
  Ni  Ni4  1  0.12507300  0.42018200  0.28372600  1
  Ni  Ni5  1  0.28372600  0.87492700  0.42018200  1
  Ni  Ni6  1  0.57981800  0.28372600  0.12507300  1
  Ni  Ni7  1  0.87492700  0.57981800  0.71627400  1
  Cu  Cu8  1  0.78205300  0.25731700  0.41779800  1
  Cu  Cu9  1  0.58220200  0.78205300  0.74268300  1
  Cu  Cu10  1  0.25731700  0.58220200  0.21794700  1
  Cu  Cu11  1  0.21794700  0.74268300  0.58220200  1
  Cu  Cu12  1  0.41779800  0.21794700  0.25731700  1
  Cu  Cu13  1  0.74268300  0.41779800  0.78205300  1
  Cu  Cu14  1  0.68603000  0.91450500  0.42893500  1
  Cu  Cu15  1  0.57106500  0.68603000  0.08549500  1
  Cu  Cu16  1  0.91450500  0.57106500  0.31397000  1
  Cu  Cu17  1  0.31397000  0.08549500  0.57106500  1
  Cu  Cu18  1  0.42893500  0.31397000  0.91450500  1
  Cu  Cu19  1  0.08549500  0.42893500  0.68603000  1
  Cu  Cu20  1  0.93242100  0.03987100  0.69652700  1
  Cu  Cu21  1  0.30347300  0.93242100  0.96012900  1
  Cu  Cu22  1  0.03987100  0.30347300  0.06757900  1
  Cu  Cu23  1  0.06757900  0.96012900  0.30347300  1
  Cu  Cu24  1  0.69652700  0.06757900  0.03987100  1
  Cu  Cu25  1  0.96012900  0.69652700  0.93242100  1
