# generated using pymatgen
data_CuNiC3
_symmetry_space_group_name_H-M   'P 1'
_cell_length_a   6.04142018
_cell_length_b   6.04142018
_cell_length_c   6.03399226
_cell_angle_alpha   89.98814581
_cell_angle_beta   89.98814581
_cell_angle_gamma   89.96719387
_symmetry_Int_Tables_number   1
_chemical_formula_structural   CuNiC3
_chemical_formula_sum   'Cu1 Ni1 C3'
_cell_volume   220.23317619
_cell_formula_units_Z   1
loop_
 _symmetry_equiv_pos_site_id
 _symmetry_equiv_pos_as_xyz
  1  'x, y, z'
loop_
 _atom_site_type_symbol
 _atom_site_label
 _atom_site_symmetry_multiplicity
 _atom_site_fract_x
 _atom_site_fract_y
 _atom_site_fract_z
 _atom_site_occupancy
  Ni  Ni0  1  0.99561200  0.99561200  0.99681700  1
  Cu  Cu1  1  0.49505700  0.49505700  0.48434000  1
  C  C2  1  0.49541000  0.99649800  0.48557300  1
  C  C3  1  0.50800300  0.50800300  0.98443400  1
  C  C4  1  0.99649800  0.49541000  0.48557300  1
