# generated using pymatgen
data_CuNi3C4
_symmetry_space_group_name_H-M   'P 1'
_cell_length_a   6.68988500
_cell_length_b   7.03246300
_cell_length_c   7.95420400
_cell_angle_alpha   90.00000000
_cell_angle_beta   90.00000000
_cell_angle_gamma   90.00000000
_symmetry_Int_Tables_number   1
_chemical_formula_structural   CuNi3C4
_chemical_formula_sum   'Cu2 Ni6 C8'
_cell_volume   374.21641439
_cell_formula_units_Z   2
loop_
 _symmetry_equiv_pos_site_id
 _symmetry_equiv_pos_as_xyz
  1  'x, y, z'
loop_
 _atom_site_type_symbol
 _atom_site_label
 _atom_site_symmetry_multiplicity
 _atom_site_fract_x
 _atom_site_fract_y
 _atom_site_fract_z
 _atom_site_occupancy
  Ni  Ni0  1  0.98852900  0.14915700  0.50000000  1
  Ni  Ni1  1  0.01296500  0.68355800  0.24067600  1
  Ni  Ni2  1  0.51296500  0.31644200  0.25932400  1
  Ni  Ni3  1  0.48852900  0.85084300  0.00000000  1
  Ni  Ni4  1  0.51296500  0.31644200  0.74067600  1
  Ni  Ni5  1  0.01296500  0.68355800  0.75932400  1
  Cu  Cu6  1  0.49773500  0.81952100  0.50000000  1
  Cu  Cu7  1  0.99773500  0.18047900  0.00000000  1
  C  C8  1  0.39069100  0.66528100  0.72957200  1
  C  C9  1  0.89069100  0.33471900  0.77042800  1
  C  C10  1  0.89069100  0.33471900  0.22957200  1
  C  C11  1  0.39069100  0.66528100  0.27042800  1
  C  C12  1  0.32983600  0.18352700  0.00000000  1
  C  C13  1  0.87448900  0.88654400  0.00000000  1
  C  C14  1  0.82983600  0.81647300  0.50000000  1
  C  C15  1  0.37448900  0.11345600  0.50000000  1
