# generated using pymatgen
data_CuNiC4
_symmetry_space_group_name_H-M   'P 1'
_cell_length_a   3.85306400
_cell_length_b   7.69899772
_cell_length_c   10.14654400
_cell_angle_alpha   90.00000000
_cell_angle_beta   90.00000000
_cell_angle_gamma   104.49121352
_symmetry_Int_Tables_number   1
_chemical_formula_structural   CuNiC4
_chemical_formula_sum   'Cu2 Ni2 C8'
_cell_volume   291.41866645
_cell_formula_units_Z   2
loop_
 _symmetry_equiv_pos_site_id
 _symmetry_equiv_pos_as_xyz
  1  'x, y, z'
loop_
 _atom_site_type_symbol
 _atom_site_label
 _atom_site_symmetry_multiplicity
 _atom_site_fract_x
 _atom_site_fract_y
 _atom_site_fract_z
 _atom_site_occupancy
  C  C0  1  0.00000000  0.00000000  0.50000000  1
  C  C1  1  0.00000000  0.00000000  0.00000000  1
  Ni  Ni2  1  0.24813200  0.49626400  0.25000000  1
  Ni  Ni3  1  0.75186800  0.50373600  0.75000000  1
  Cu  Cu4  1  0.46450400  0.92900800  0.75000000  1
  Cu  Cu5  1  0.53549600  0.07099200  0.25000000  1
  C  C6  1  0.62351800  0.24703600  0.04876600  1
  C  C7  1  0.37648200  0.75296400  0.95123400  1
  C  C8  1  0.37648200  0.75296400  0.54876600  1
  C  C9  1  0.62351800  0.24703600  0.45123400  1
  C  C10  1  0.06656700  0.13313400  0.75000000  1
  C  C11  1  0.93343300  0.86686600  0.25000000  1
