# generated using pymatgen
data_Cu2NiC3
_symmetry_space_group_name_H-M   'P 1'
_cell_length_a   6.21015800
_cell_length_b   7.21783794
_cell_length_c   7.21783794
_cell_angle_alpha   119.99999946
_cell_angle_beta   90.00000000
_cell_angle_gamma   90.00000000
_symmetry_Int_Tables_number   1
_chemical_formula_structural   Cu2NiC3
_chemical_formula_sum   'Cu4 Ni2 C6'
_cell_volume   280.18671366
_cell_formula_units_Z   2
loop_
 _symmetry_equiv_pos_site_id
 _symmetry_equiv_pos_as_xyz
  1  'x, y, z'
loop_
 _atom_site_type_symbol
 _atom_site_label
 _atom_site_symmetry_multiplicity
 _atom_site_fract_x
 _atom_site_fract_y
 _atom_site_fract_z
 _atom_site_occupancy
  Ni  Ni0  1  0.37106000  0.66666700  0.33333300  1
  Ni  Ni1  1  0.62894000  0.33333300  0.66666700  1
  Cu  Cu2  1  0.00000000  0.00000000  0.00000000  1
  Cu  Cu3  1  0.00000000  0.50000000  0.00000000  1
  Cu  Cu4  1  0.00000000  0.00000000  0.50000000  1
  Cu  Cu5  1  0.00000000  0.50000000  0.50000000  1
  C  C6  1  0.81374300  0.82982400  0.17017600  1
  C  C7  1  0.81374300  0.34035200  0.17017600  1
  C  C8  1  0.81374300  0.82982400  0.65964800  1
  C  C9  1  0.18625700  0.17017600  0.34035200  1
  C  C10  1  0.18625700  0.17017600  0.82982400  1
  C  C11  1  0.18625700  0.65964800  0.82982400  1
