# generated using pymatgen
data_CuNi2C5
_symmetry_space_group_name_H-M   'P 1'
_cell_length_a   7.43289100
_cell_length_b   8.07890000
_cell_length_c   11.78506000
_cell_angle_alpha   90.00000000
_cell_angle_beta   90.00000000
_cell_angle_gamma   90.00000000
_symmetry_Int_Tables_number   1
_chemical_formula_structural   CuNi2C5
_chemical_formula_sum   'Cu4 Ni8 C20'
_cell_volume   707.68793981
_cell_formula_units_Z   4
loop_
 _symmetry_equiv_pos_site_id
 _symmetry_equiv_pos_as_xyz
  1  'x, y, z'
loop_
 _atom_site_type_symbol
 _atom_site_label
 _atom_site_symmetry_multiplicity
 _atom_site_fract_x
 _atom_site_fract_y
 _atom_site_fract_z
 _atom_site_occupancy
  Ni  Ni0  1  0.96891000  0.00127200  0.32356600  1
  Ni  Ni1  1  0.46891000  0.99872800  0.17643400  1
  Ni  Ni2  1  0.53109000  0.49872800  0.82356600  1
  Ni  Ni3  1  0.03109000  0.50127200  0.67643400  1
  Ni  Ni4  1  0.03109000  0.99872800  0.67643400  1
  Ni  Ni5  1  0.53109000  0.00127200  0.82356600  1
  Ni  Ni6  1  0.46891000  0.50127200  0.17643400  1
  Ni  Ni7  1  0.96891000  0.49872800  0.32356600  1
  Cu  Cu8  1  0.43230400  0.25000000  0.49259200  1
  Cu  Cu9  1  0.93230400  0.75000000  0.00740800  1
  Cu  Cu10  1  0.06769600  0.25000000  0.99259200  1
  Cu  Cu11  1  0.56769600  0.75000000  0.50740800  1
  C  C12  1  0.04739900  0.25000000  0.49901000  1
  C  C13  1  0.54739900  0.75000000  0.00099000  1
  C  C14  1  0.45260100  0.25000000  0.99901000  1
  C  C15  1  0.95260100  0.75000000  0.50099000  1
  C  C16  1  0.66363800  0.25000000  0.31035600  1
  C  C17  1  0.16363800  0.75000000  0.18964400  1
  C  C18  1  0.83636200  0.25000000  0.81035600  1
  C  C19  1  0.33636200  0.75000000  0.68964400  1
  C  C20  1  0.66730300  0.45950000  0.59294500  1
  C  C21  1  0.16730300  0.54050000  0.90705500  1
  C  C22  1  0.83269700  0.04050000  0.09294500  1
  C  C23  1  0.33269700  0.95950000  0.40705500  1
  C  C24  1  0.33269700  0.54050000  0.40705500  1
  C  C25  1  0.83269700  0.45950000  0.09294500  1
  C  C26  1  0.16730300  0.95950000  0.90705500  1
  C  C27  1  0.66730300  0.04050000  0.59294500  1
  C  C28  1  0.31100800  0.25000000  0.71462300  1
  C  C29  1  0.81100800  0.75000000  0.78537700  1
  C  C30  1  0.18899200  0.25000000  0.21462300  1
  C  C31  1  0.68899200  0.75000000  0.28537700  1
