# generated using pymatgen
data_Cu12Ni16C
_symmetry_space_group_name_H-M   'P 1'
_cell_length_a   9.11846461
_cell_length_b   9.11846461
_cell_length_c   9.11846461
_cell_angle_alpha   109.47122063
_cell_angle_beta   109.47122063
_cell_angle_gamma   109.47122063
_symmetry_Int_Tables_number   1
_chemical_formula_structural   Cu12Ni16C
_chemical_formula_sum   'Cu12 Ni16 C1'
_cell_volume   583.63759691
_cell_formula_units_Z   1
loop_
 _symmetry_equiv_pos_site_id
 _symmetry_equiv_pos_as_xyz
  1  'x, y, z'
loop_
 _atom_site_type_symbol
 _atom_site_label
 _atom_site_symmetry_multiplicity
 _atom_site_fract_x
 _atom_site_fract_y
 _atom_site_fract_z
 _atom_site_occupancy
  C  C0  1  0.00000000  0.00000000  0.00000000  1
  Ni  Ni1  1  0.31901400  0.60315100  0.00000000  1
  Ni  Ni2  1  0.60315100  0.31901400  0.00000000  1
  Ni  Ni3  1  0.35605400  0.00000000  0.00000000  1
  Ni  Ni4  1  0.00000000  0.35605400  0.00000000  1
  Ni  Ni5  1  0.39684900  0.39684900  0.71586200  1
  Ni  Ni6  1  0.28413800  0.68098600  0.68098600  1
  Ni  Ni7  1  0.68098600  0.28413800  0.68098600  1
  Ni  Ni8  1  0.64394600  0.64394600  0.64394600  1
  Ni  Ni9  1  0.31901400  0.00000000  0.60315100  1
  Ni  Ni10  1  0.00000000  0.31901400  0.60315100  1
  Ni  Ni11  1  0.71586200  0.39684900  0.39684900  1
  Ni  Ni12  1  0.39684900  0.71586200  0.39684900  1
  Ni  Ni13  1  0.00000000  0.00000000  0.35605400  1
  Ni  Ni14  1  0.60315100  0.00000000  0.31901400  1
  Ni  Ni15  1  0.00000000  0.60315100  0.31901400  1
  Ni  Ni16  1  0.68098600  0.68098600  0.28413800  1
  Cu  Cu17  1  0.81377900  0.63289900  0.00000000  1
  Cu  Cu18  1  0.63289900  0.81377900  0.00000000  1
  Cu  Cu19  1  0.18622100  0.18622100  0.81912000  1
  Cu  Cu20  1  0.63289900  0.00000000  0.81377900  1
  Cu  Cu21  1  0.00000000  0.63289900  0.81377900  1
  Cu  Cu22  1  0.00000000  0.81377900  0.63289900  1
  Cu  Cu23  1  0.81377900  0.00000000  0.63289900  1
  Cu  Cu24  1  0.18088000  0.36710100  0.36710100  1
  Cu  Cu25  1  0.36710100  0.18088000  0.36710100  1
  Cu  Cu26  1  0.18622100  0.81912000  0.18622100  1
  Cu  Cu27  1  0.81912000  0.18622100  0.18622100  1
  Cu  Cu28  1  0.36710100  0.36710100  0.18088000  1
