# generated using pymatgen
data_CuNi3C7
_symmetry_space_group_name_H-M   'P 1'
_cell_length_a   7.15828540
_cell_length_b   7.15828540
_cell_length_c   7.15828531
_cell_angle_alpha   91.48784637
_cell_angle_beta   91.48784637
_cell_angle_gamma   91.48784764
_symmetry_Int_Tables_number   1
_chemical_formula_structural   CuNi3C7
_chemical_formula_sum   'Cu2 Ni6 C14'
_cell_volume   366.42050933
_cell_formula_units_Z   2
loop_
 _symmetry_equiv_pos_site_id
 _symmetry_equiv_pos_as_xyz
  1  'x, y, z'
loop_
 _atom_site_type_symbol
 _atom_site_label
 _atom_site_symmetry_multiplicity
 _atom_site_fract_x
 _atom_site_fract_y
 _atom_site_fract_z
 _atom_site_occupancy
  Ni  Ni0  1  0.75000000  0.39381500  0.10618500  1
  Ni  Ni1  1  0.10618500  0.75000000  0.39381500  1
  Ni  Ni2  1  0.39381500  0.10618500  0.75000000  1
  Ni  Ni3  1  0.25000000  0.60618500  0.89381500  1
  Ni  Ni4  1  0.89381500  0.25000000  0.60618500  1
  Ni  Ni5  1  0.60618500  0.89381500  0.25000000  1
  Cu  Cu6  1  0.25000000  0.25000000  0.25000000  1
  Cu  Cu7  1  0.75000000  0.75000000  0.75000000  1
  C  C8  1  0.00000000  0.00000000  0.00000000  1
  C  C9  1  0.50000000  0.50000000  0.50000000  1
  C  C10  1  0.44876700  0.76639300  0.58178700  1
  C  C11  1  0.58178700  0.44876700  0.76639300  1
  C  C12  1  0.76639300  0.58178700  0.44876700  1
  C  C13  1  0.05123300  0.91821300  0.73360700  1
  C  C14  1  0.73360700  0.05123300  0.91821300  1
  C  C15  1  0.91821300  0.73360700  0.05123300  1
  C  C16  1  0.55123300  0.23360700  0.41821300  1
  C  C17  1  0.41821300  0.55123300  0.23360700  1
  C  C18  1  0.23360700  0.41821300  0.55123300  1
  C  C19  1  0.94876700  0.08178700  0.26639300  1
  C  C20  1  0.08178700  0.26639300  0.94876700  1
  C  C21  1  0.26639300  0.94876700  0.08178700  1
