# generated using pymatgen
data_CuNiC6
_symmetry_space_group_name_H-M   'P 1'
_cell_length_a   7.44012093
_cell_length_b   7.44012093
_cell_length_c   7.20150200
_cell_angle_alpha   90.00000000
_cell_angle_beta   90.00000000
_cell_angle_gamma   120.00000826
_symmetry_Int_Tables_number   1
_chemical_formula_structural   CuNiC6
_chemical_formula_sum   'Cu3 Ni3 C18'
_cell_volume   345.23408740
_cell_formula_units_Z   3
loop_
 _symmetry_equiv_pos_site_id
 _symmetry_equiv_pos_as_xyz
  1  'x, y, z'
loop_
 _atom_site_type_symbol
 _atom_site_label
 _atom_site_symmetry_multiplicity
 _atom_site_fract_x
 _atom_site_fract_y
 _atom_site_fract_z
 _atom_site_occupancy
  C  C0  1  0.38974400  0.38974400  0.50000000  1
  C  C1  1  0.00000000  0.61025600  0.16666700  1
  C  C2  1  0.61025600  0.00000000  0.83333300  1
  Ni  Ni3  1  0.90449700  0.90449700  0.50000000  1
  Ni  Ni4  1  0.00000000  0.09550300  0.16666700  1
  Ni  Ni5  1  0.09550300  0.00000000  0.83333300  1
  Cu  Cu6  1  0.60647400  0.00000000  0.33333300  1
  Cu  Cu7  1  0.39352600  0.39352600  0.00000000  1
  Cu  Cu8  1  0.00000000  0.60647400  0.66666700  1
  C  C9  1  0.97394800  0.97394800  0.00000000  1
  C  C10  1  0.02605200  0.00000000  0.33333300  1
  C  C11  1  0.00000000  0.02605200  0.66666700  1
  C  C12  1  0.56730800  0.15095500  0.48275800  1
  C  C13  1  0.58364700  0.43269200  0.14942500  1
  C  C14  1  0.84904500  0.41635300  0.81609100  1
  C  C15  1  0.14408400  0.82265300  0.81244300  1
  C  C16  1  0.17734700  0.32143100  0.14577700  1
  C  C17  1  0.67856900  0.85591600  0.47911000  1
  C  C18  1  0.15095500  0.56730800  0.51724200  1
  C  C19  1  0.43269200  0.58364700  0.85057500  1
  C  C20  1  0.41635300  0.84904500  0.18390900  1
  C  C21  1  0.85591600  0.67856900  0.52089000  1
  C  C22  1  0.32143100  0.17734700  0.85422300  1
  C  C23  1  0.82265300  0.14408400  0.18755700  1
