# generated using pymatgen
data_Cu(NiC2)2
_symmetry_space_group_name_H-M   'P 1'
_cell_length_a   7.38433200
_cell_length_b   7.85205600
_cell_length_c   12.05865000
_cell_angle_alpha   90.00000000
_cell_angle_beta   90.00000000
_cell_angle_gamma   90.00000000
_symmetry_Int_Tables_number   1
_chemical_formula_structural   Cu(NiC2)2
_chemical_formula_sum   'Cu4 Ni8 C16'
_cell_volume   699.18691599
_cell_formula_units_Z   4
loop_
 _symmetry_equiv_pos_site_id
 _symmetry_equiv_pos_as_xyz
  1  'x, y, z'
loop_
 _atom_site_type_symbol
 _atom_site_label
 _atom_site_symmetry_multiplicity
 _atom_site_fract_x
 _atom_site_fract_y
 _atom_site_fract_z
 _atom_site_occupancy
  Ni  Ni0  1  0.09317900  0.75000000  0.04568700  1
  Ni  Ni1  1  0.90682100  0.25000000  0.95431300  1
  Ni  Ni2  1  0.59317900  0.75000000  0.45431300  1
  Ni  Ni3  1  0.40682100  0.25000000  0.54568700  1
  Ni  Ni4  1  0.36407600  0.75000000  0.87096200  1
  Ni  Ni5  1  0.63592400  0.25000000  0.12903800  1
  Ni  Ni6  1  0.86407600  0.75000000  0.62903800  1
  Ni  Ni7  1  0.13592400  0.25000000  0.37096200  1
  Cu  Cu8  1  0.18484100  0.75000000  0.45497300  1
  Cu  Cu9  1  0.81515900  0.25000000  0.54502700  1
  Cu  Cu10  1  0.68484100  0.75000000  0.04502700  1
  Cu  Cu11  1  0.31515900  0.25000000  0.95497300  1
  C  C12  1  0.66223600  0.47446900  0.61026700  1
  C  C13  1  0.33776400  0.97446900  0.38973300  1
  C  C14  1  0.16223600  0.02553100  0.88973300  1
  C  C15  1  0.83776400  0.52553100  0.11026700  1
  C  C16  1  0.33776400  0.52553100  0.38973300  1
  C  C17  1  0.66223600  0.02553100  0.61026700  1
  C  C18  1  0.83776400  0.97446900  0.11026700  1
  C  C19  1  0.16223600  0.47446900  0.88973300  1
  C  C20  1  0.91405500  0.75000000  0.37885700  1
  C  C21  1  0.08594500  0.25000000  0.62114300  1
  C  C22  1  0.41405500  0.75000000  0.12114300  1
  C  C23  1  0.58594500  0.25000000  0.87885700  1
  C  C24  1  0.30283800  0.25000000  0.13966400  1
  C  C25  1  0.69716200  0.75000000  0.86033600  1
  C  C26  1  0.80283800  0.25000000  0.36033600  1
  C  C27  1  0.19716200  0.75000000  0.63966400  1
