# generated using pymatgen
data_Cu2Ni2C
_symmetry_space_group_name_H-M   'P 1'
_cell_length_a   4.07315999
_cell_length_b   4.07315999
_cell_length_c   9.66276568
_cell_angle_alpha   77.83276814
_cell_angle_beta   77.83276814
_cell_angle_gamma   60.00000017
_symmetry_Int_Tables_number   1
_chemical_formula_structural   Cu2Ni2C
_chemical_formula_sum   'Cu2 Ni2 C1'
_cell_volume   134.65945063
_cell_formula_units_Z   1
loop_
 _symmetry_equiv_pos_site_id
 _symmetry_equiv_pos_as_xyz
  1  'x, y, z'
loop_
 _atom_site_type_symbol
 _atom_site_label
 _atom_site_symmetry_multiplicity
 _atom_site_fract_x
 _atom_site_fract_y
 _atom_site_fract_z
 _atom_site_occupancy
  C  C0  1  0.00000000  0.00000000  0.00000000  1
  Ni  Ni1  1  0.21093000  0.21093000  0.36721000  1
  Ni  Ni2  1  0.78907000  0.78907000  0.63279000  1
  Cu  Cu3  1  0.40706900  0.40706900  0.77879300  1
  Cu  Cu4  1  0.59293100  0.59293100  0.22120700  1
