# generated using pymatgen
data_Cu6Ni2C19
_symmetry_space_group_name_H-M   'P 1'
_cell_length_a   6.43873022
_cell_length_b   6.43873022
_cell_length_c   20.19761700
_cell_angle_alpha   90.00000000
_cell_angle_beta   90.00000000
_cell_angle_gamma   120.00000224
_symmetry_Int_Tables_number   1
_chemical_formula_structural   Cu6Ni2C19
_chemical_formula_sum   'Cu12 Ni4 C38'
_cell_volume   725.15561086
_cell_formula_units_Z   2
loop_
 _symmetry_equiv_pos_site_id
 _symmetry_equiv_pos_as_xyz
  1  'x, y, z'
loop_
 _atom_site_type_symbol
 _atom_site_label
 _atom_site_symmetry_multiplicity
 _atom_site_fract_x
 _atom_site_fract_y
 _atom_site_fract_z
 _atom_site_occupancy
  Ni  Ni0  1  0.33333300  0.66666700  0.50000000  1
  Ni  Ni1  1  0.66666700  0.33333300  0.00000000  1
  Ni  Ni2  1  0.66666700  0.33333300  0.50000000  1
  Ni  Ni3  1  0.33333300  0.66666700  0.00000000  1
  Cu  Cu4  1  0.65295000  0.65295000  0.84367700  1
  Cu  Cu5  1  0.34705000  0.00000000  0.84367700  1
  Cu  Cu6  1  0.00000000  0.34705000  0.84367700  1
  Cu  Cu7  1  0.00000000  0.65295000  0.34367700  1
  Cu  Cu8  1  0.34705000  0.00000000  0.65632300  1
  Cu  Cu9  1  0.34705000  0.34705000  0.34367700  1
  Cu  Cu10  1  0.65295000  0.00000000  0.34367700  1
  Cu  Cu11  1  0.34705000  0.34705000  0.15632300  1
  Cu  Cu12  1  0.00000000  0.65295000  0.15632300  1
  Cu  Cu13  1  0.00000000  0.34705000  0.65632300  1
  Cu  Cu14  1  0.65295000  0.65295000  0.65632300  1
  Cu  Cu15  1  0.65295000  0.00000000  0.15632300  1
  C  C16  1  0.66666700  0.33333300  0.14595100  1
  C  C17  1  0.33333300  0.66666700  0.64595100  1
  C  C18  1  0.33333300  0.66666700  0.35404900  1
  C  C19  1  0.66666700  0.33333300  0.85404900  1
  C  C20  1  0.33333300  0.66666700  0.85404900  1
  C  C21  1  0.66666700  0.33333300  0.35404900  1
  C  C22  1  0.66666700  0.33333300  0.64595100  1
  C  C23  1  0.33333300  0.66666700  0.14595100  1
  C  C24  1  0.61921600  0.61921600  0.94282300  1
  C  C25  1  0.38078400  0.00000000  0.94282300  1
  C  C26  1  0.00000000  0.38078400  0.94282300  1
  C  C27  1  0.00000000  0.61921600  0.44282300  1
  C  C28  1  0.38078400  0.00000000  0.55717700  1
  C  C29  1  0.38078400  0.38078400  0.44282300  1
  C  C30  1  0.61921600  0.00000000  0.44282300  1
  C  C31  1  0.38078400  0.38078400  0.05717700  1
  C  C32  1  0.23640800  0.00000000  0.15646600  1
  C  C33  1  0.23640800  0.23640800  0.65646600  1
  C  C34  1  0.00000000  0.76359200  0.65646600  1
  C  C35  1  0.00000000  0.23640800  0.15646600  1
  C  C36  1  0.76359200  0.76359200  0.15646600  1
  C  C37  1  0.23640800  0.00000000  0.34353400  1
  C  C38  1  0.76359200  0.76359200  0.34353400  1
  C  C39  1  0.76359200  0.00000000  0.65646600  1
  C  C40  1  0.00000000  0.23640800  0.34353400  1
  C  C41  1  0.00000000  0.76359200  0.84353400  1
  C  C42  1  0.76359200  0.00000000  0.84353400  1
  C  C43  1  0.23640800  0.23640800  0.84353400  1
  C  C44  1  0.59701000  0.00000000  0.25000000  1
  C  C45  1  0.59701000  0.59701000  0.75000000  1
  C  C46  1  0.00000000  0.40299000  0.75000000  1
  C  C47  1  0.00000000  0.59701000  0.25000000  1
  C  C48  1  0.40299000  0.40299000  0.25000000  1
  C  C49  1  0.40299000  0.00000000  0.75000000  1
  C  C50  1  0.61921600  0.00000000  0.05717700  1
  C  C51  1  0.61921600  0.61921600  0.55717700  1
  C  C52  1  0.00000000  0.38078400  0.55717700  1
  C  C53  1  0.00000000  0.61921600  0.05717700  1
