# generated using pymatgen
data_Cu2NiC10
_symmetry_space_group_name_H-M   'P 1'
_cell_length_a   6.69040719
_cell_length_b   6.69040719
_cell_length_c   7.00235075
_cell_angle_alpha   75.78727180
_cell_angle_beta   75.78727180
_cell_angle_gamma   45.71830144
_symmetry_Int_Tables_number   1
_chemical_formula_structural   Cu2NiC10
_chemical_formula_sum   'Cu2 Ni1 C10'
_cell_volume   216.28177073
_cell_formula_units_Z   1
loop_
 _symmetry_equiv_pos_site_id
 _symmetry_equiv_pos_as_xyz
  1  'x, y, z'
loop_
 _atom_site_type_symbol
 _atom_site_label
 _atom_site_symmetry_multiplicity
 _atom_site_fract_x
 _atom_site_fract_y
 _atom_site_fract_z
 _atom_site_occupancy
  C  C0  1  0.17319200  0.17319200  0.78511000  1
  C  C1  1  0.82680800  0.82680800  0.21489000  1
  Ni  Ni2  1  0.50000000  0.50000000  0.50000000  1
  Cu  Cu3  1  0.13290800  0.13290800  0.29759100  1
  Cu  Cu4  1  0.86709200  0.86709200  0.70240900  1
  C  C5  1  0.12154800  0.63396900  0.56435900  1
  C  C6  1  0.36603100  0.87845200  0.43564100  1
  C  C7  1  0.87845200  0.36603100  0.43564100  1
  C  C8  1  0.63396900  0.12154800  0.56435900  1
  C  C9  1  0.25476000  0.25476000  0.15979300  1
  C  C10  1  0.95294500  0.95294500  0.82471900  1
  C  C11  1  0.04705500  0.04705500  0.17528100  1
  C  C12  1  0.74524000  0.74524000  0.84020700  1
