# generated using pymatgen
data_Cu2NiC2
_symmetry_space_group_name_H-M   'P 1'
_cell_length_a   3.18496000
_cell_length_b   4.52890252
_cell_length_c   4.52890252
_cell_angle_alpha   60.69569340
_cell_angle_beta   69.41319754
_cell_angle_gamma   69.41319754
_symmetry_Int_Tables_number   1
_chemical_formula_structural   Cu2NiC2
_chemical_formula_sum   'Cu2 Ni1 C2'
_cell_volume   52.02352640
_cell_formula_units_Z   1
loop_
 _symmetry_equiv_pos_site_id
 _symmetry_equiv_pos_as_xyz
  1  'x, y, z'
loop_
 _atom_site_type_symbol
 _atom_site_label
 _atom_site_symmetry_multiplicity
 _atom_site_fract_x
 _atom_site_fract_y
 _atom_site_fract_z
 _atom_site_occupancy
  Ni  Ni0  1  0.00000000  0.00000000  0.00000000  1
  Cu  Cu1  1  0.50000000  0.70153800  0.29846200  1
  Cu  Cu2  1  0.49999900  0.29846200  0.70153900  1
  C  C3  1  0.80070600  0.69929400  0.69929400  1
  C  C4  1  0.19929400  0.30070600  0.30070600  1
