# generated using pymatgen
data_Cu3Ni2
_symmetry_space_group_name_H-M   'P 1'
_cell_length_a   10.96764900
_cell_length_b   4.50495800
_cell_length_c   12.91540262
_cell_angle_alpha   69.98535427
_cell_angle_beta   90.00000000
_cell_angle_gamma   90.00000000
_symmetry_Int_Tables_number   1
_chemical_formula_structural   Cu3Ni2
_chemical_formula_sum   'Cu12 Ni8'
_cell_volume   599.59449092
_cell_formula_units_Z   4
loop_
 _symmetry_equiv_pos_site_id
 _symmetry_equiv_pos_as_xyz
  1  'x, y, z'
loop_
 _atom_site_type_symbol
 _atom_site_label
 _atom_site_symmetry_multiplicity
 _atom_site_fract_x
 _atom_site_fract_y
 _atom_site_fract_z
 _atom_site_occupancy
  Ni  Ni0  1  0.80487800  0.62227700  0.26309300  1
  Ni  Ni1  1  0.30487800  0.37772300  0.23690700  1
  Ni  Ni2  1  0.19512200  0.37772300  0.73690700  1
  Ni  Ni3  1  0.69512200  0.62227700  0.76309300  1
  Ni  Ni4  1  0.68206200  0.89786300  0.48335500  1
  Ni  Ni5  1  0.18206200  0.10213700  0.01664500  1
  Ni  Ni6  1  0.31793800  0.10213700  0.51664500  1
  Ni  Ni7  1  0.81793800  0.89786300  0.98335500  1
  Cu  Cu8  1  0.87374600  0.12675800  0.40239900  1
  Cu  Cu9  1  0.37374600  0.87324200  0.09760100  1
  Cu  Cu10  1  0.12625400  0.87324200  0.59760100  1
  Cu  Cu11  1  0.62625400  0.12675800  0.90239900  1
  Cu  Cu12  1  0.60961700  0.68685200  0.34146600  1
  Cu  Cu13  1  0.10961700  0.31314800  0.15853400  1
  Cu  Cu14  1  0.39038300  0.31314800  0.65853400  1
  Cu  Cu15  1  0.89038300  0.68685200  0.84146600  1
  Cu  Cu16  1  0.71186000  0.44872600  0.11954300  1
  Cu  Cu17  1  0.21186000  0.55127400  0.38045700  1
  Cu  Cu18  1  0.28814000  0.55127400  0.88045700  1
  Cu  Cu19  1  0.78814000  0.44872600  0.61954300  1
