# generated using pymatgen
data_Cu9Ni3C2
_symmetry_space_group_name_H-M   'P 1'
_cell_length_a   7.21881500
_cell_length_b   7.24958943
_cell_length_c   10.70029334
_cell_angle_alpha   86.80572835
_cell_angle_beta   107.04472100
_cell_angle_gamma   107.76317826
_symmetry_Int_Tables_number   1
_chemical_formula_structural   Cu9Ni3C2
_chemical_formula_sum   'Cu18 Ni6 C4'
_cell_volume   509.51300745
_cell_formula_units_Z   2
loop_
 _symmetry_equiv_pos_site_id
 _symmetry_equiv_pos_as_xyz
  1  'x, y, z'
loop_
 _atom_site_type_symbol
 _atom_site_label
 _atom_site_symmetry_multiplicity
 _atom_site_fract_x
 _atom_site_fract_y
 _atom_site_fract_z
 _atom_site_occupancy
  C  C0  1  0.00000000  0.50000000  0.00000000  1
  C  C1  1  0.15931000  0.46885500  0.39860700  1
  C  C2  1  0.84069000  0.53114500  0.60139300  1
  C  C3  1  0.50000000  0.00000000  0.00000000  1
  Ni  Ni4  1  0.41215600  0.05313500  0.62998000  1
  Ni  Ni5  1  0.58784400  0.94686500  0.37002000  1
  Ni  Ni6  1  0.44619300  0.53796500  0.80842900  1
  Ni  Ni7  1  0.55380700  0.46203500  0.19157100  1
  Ni  Ni8  1  0.03408100  0.97511800  0.19099600  1
  Ni  Ni9  1  0.96591900  0.02488200  0.80900400  1
  Cu  Cu10  1  0.33724400  0.93583100  0.39178000  1
  Cu  Cu11  1  0.66275600  0.06416900  0.60822000  1
  Cu  Cu12  1  0.58971800  0.70056300  0.41672800  1
  Cu  Cu13  1  0.41028200  0.29943700  0.58327200  1
  Cu  Cu14  1  0.92261900  0.71189200  0.18680400  1
  Cu  Cu15  1  0.07738100  0.28810800  0.81319600  1
  Cu  Cu16  1  0.96004400  0.04896500  0.32531500  1
  Cu  Cu17  1  0.03995600  0.95103500  0.67468500  1
  Cu  Cu18  1  0.28749400  0.35335400  0.19099100  1
  Cu  Cu19  1  0.71250600  0.64664600  0.80900900  1
  Cu  Cu20  1  0.68002000  0.33401200  0.32467100  1
  Cu  Cu21  1  0.31998000  0.66598800  0.67532900  1
  Cu  Cu22  1  0.56437700  0.32724100  0.05053300  1
  Cu  Cu23  1  0.43562300  0.67275900  0.94946700  1
  Cu  Cu24  1  0.84311500  0.04758800  0.04999100  1
  Cu  Cu25  1  0.15688500  0.95241200  0.95000900  1
  Cu  Cu26  1  0.46676900  0.87655100  0.19137400  1
  Cu  Cu27  1  0.53323100  0.12344900  0.80862600  1
