# generated using pymatgen
data_CuNi2C5
_symmetry_space_group_name_H-M   'P 1'
_cell_length_a   6.43753051
_cell_length_b   6.43753051
_cell_length_c   6.43753051
_cell_angle_alpha   129.89896605
_cell_angle_beta   129.89896605
_cell_angle_gamma   73.56833572
_symmetry_Int_Tables_number   1
_chemical_formula_structural   CuNi2C5
_chemical_formula_sum   'Cu2 Ni4 C10'
_cell_volume   153.22563570
_cell_formula_units_Z   2
loop_
 _symmetry_equiv_pos_site_id
 _symmetry_equiv_pos_as_xyz
  1  'x, y, z'
loop_
 _atom_site_type_symbol
 _atom_site_label
 _atom_site_symmetry_multiplicity
 _atom_site_fract_x
 _atom_site_fract_y
 _atom_site_fract_z
 _atom_site_occupancy
  C  C0  1  0.50000000  0.50000000  0.00000000  1
  C  C1  1  0.30994200  0.46728900  0.50000000  1
  C  C2  1  0.80994200  0.30994200  0.84265300  1
  C  C3  1  0.69005800  0.53271100  0.50000000  1
  C  C4  1  0.03271100  0.19005800  0.50000000  1
  C  C5  1  0.53271100  0.03271100  0.84265300  1
  C  C6  1  0.19005800  0.69005800  0.15734700  1
  C  C7  1  0.46728900  0.96728900  0.15734700  1
  C  C8  1  0.00000000  0.00000000  0.00000000  1
  C  C9  1  0.96728900  0.80994200  0.50000000  1
  Ni  Ni10  1  0.88146200  0.38146200  0.26292400  1
  Ni  Ni11  1  0.38146200  0.11853800  0.50000000  1
  Ni  Ni12  1  0.11853800  0.61853800  0.73707600  1
  Ni  Ni13  1  0.61853800  0.88146200  0.50000000  1
  Cu  Cu14  1  0.25000000  0.25000000  0.00000000  1
  Cu  Cu15  1  0.75000000  0.75000000  0.00000000  1
