# generated using pymatgen
data_Cu2NiC
_symmetry_space_group_name_H-M   'P 1'
_cell_length_a   4.08587872
_cell_length_b   4.08587872
_cell_length_c   20.44765200
_cell_angle_alpha   90.00000000
_cell_angle_beta   90.00000000
_cell_angle_gamma   90.02127903
_symmetry_Int_Tables_number   1
_chemical_formula_structural   Cu2NiC
_chemical_formula_sum   'Cu8 Ni4 C4'
_cell_volume   341.36135845
_cell_formula_units_Z   4
loop_
 _symmetry_equiv_pos_site_id
 _symmetry_equiv_pos_as_xyz
  1  'x, y, z'
loop_
 _atom_site_type_symbol
 _atom_site_label
 _atom_site_symmetry_multiplicity
 _atom_site_fract_x
 _atom_site_fract_y
 _atom_site_fract_z
 _atom_site_occupancy
  C  C0  1  0.25691700  0.25691700  0.38864500  1
  C  C1  1  0.74308300  0.74308300  0.61135500  1
  C  C2  1  0.75691700  0.75691700  0.11135500  1
  C  C3  1  0.24308300  0.24308300  0.88864500  1
  Ni  Ni4  1  0.23808500  0.73808500  0.75000000  1
  Ni  Ni5  1  0.26191500  0.76191500  0.25000000  1
  Ni  Ni6  1  0.76191500  0.26191500  0.25000000  1
  Ni  Ni7  1  0.73808500  0.23808500  0.75000000  1
  Cu  Cu8  1  0.74127700  0.74127700  0.84347300  1
  Cu  Cu9  1  0.25872300  0.25872300  0.15652700  1
  Cu  Cu10  1  0.24127700  0.24127700  0.65652700  1
  Cu  Cu11  1  0.75872300  0.75872300  0.34347300  1
  Cu  Cu12  1  0.25291500  0.74708500  0.00000000  1
  Cu  Cu13  1  0.24708500  0.75291500  0.50000000  1
  Cu  Cu14  1  0.74708500  0.25291500  0.00000000  1
  Cu  Cu15  1  0.75291500  0.24708500  0.50000000  1
