# generated using pymatgen
data_CuNiC3
_symmetry_space_group_name_H-M   'P 1'
_cell_length_a   5.54969274
_cell_length_b   5.54969274
_cell_length_c   5.64770118
_cell_angle_alpha   89.78244714
_cell_angle_beta   89.78244714
_cell_angle_gamma   85.23207619
_symmetry_Int_Tables_number   1
_chemical_formula_structural   CuNiC3
_chemical_formula_sum   'Cu1 Ni1 C3'
_cell_volume   173.33982156
_cell_formula_units_Z   1
loop_
 _symmetry_equiv_pos_site_id
 _symmetry_equiv_pos_as_xyz
  1  'x, y, z'
loop_
 _atom_site_type_symbol
 _atom_site_label
 _atom_site_symmetry_multiplicity
 _atom_site_fract_x
 _atom_site_fract_y
 _atom_site_fract_z
 _atom_site_occupancy
  Ni  Ni0  1  0.09502500  0.09502500  0.08197800  1
  Cu  Cu1  1  0.51838100  0.51838100  0.44897800  1
  C  C2  1  0.47970100  0.95779800  0.44199600  1
  C  C3  1  0.47081300  0.47081300  0.02823300  1
  C  C4  1  0.95779800  0.47970100  0.44199600  1
