# generated using pymatgen
data_Cu3Ni3C2
_symmetry_space_group_name_H-M   'P 1'
_cell_length_a   8.68077500
_cell_length_b   8.68077500
_cell_length_c   8.68077436
_cell_angle_alpha   89.88927764
_cell_angle_beta   89.88927764
_cell_angle_gamma   89.88927719
_symmetry_Int_Tables_number   1
_chemical_formula_structural   Cu3Ni3C2
_chemical_formula_sum   'Cu12 Ni12 C8'
_cell_volume   654.14350988
_cell_formula_units_Z   4
loop_
 _symmetry_equiv_pos_site_id
 _symmetry_equiv_pos_as_xyz
  1  'x, y, z'
loop_
 _atom_site_type_symbol
 _atom_site_label
 _atom_site_symmetry_multiplicity
 _atom_site_fract_x
 _atom_site_fract_y
 _atom_site_fract_z
 _atom_site_occupancy
  Ni  Ni0  1  0.84909600  0.66608700  0.00205200  1
  Ni  Ni1  1  0.00205200  0.84909600  0.66608700  1
  Ni  Ni2  1  0.66608700  0.00205200  0.84909600  1
  Ni  Ni3  1  0.15090400  0.33391300  0.99794800  1
  Ni  Ni4  1  0.99794800  0.15090400  0.33391300  1
  Ni  Ni5  1  0.33391300  0.99794800  0.15090400  1
  Ni  Ni6  1  0.65206600  0.16604000  0.50178800  1
  Ni  Ni7  1  0.50178800  0.65206600  0.16604000  1
  Ni  Ni8  1  0.16604000  0.50178800  0.65206600  1
  Ni  Ni9  1  0.34793400  0.83396000  0.49821200  1
  Ni  Ni10  1  0.49821200  0.34793400  0.83396000  1
  Ni  Ni11  1  0.83396000  0.49821200  0.34793400  1
  C  C12  1  0.75191700  0.75191700  0.75191700  1
  C  C13  1  0.24808300  0.24808300  0.24808300  1
  C  C14  1  0.24887000  0.25253600  0.74940800  1
  C  C15  1  0.74940800  0.24887000  0.25253600  1
  C  C16  1  0.25253600  0.74940800  0.24887000  1
  C  C17  1  0.75113000  0.74746400  0.25059200  1
  C  C18  1  0.25059200  0.75113000  0.74746400  1
  C  C19  1  0.74746400  0.25059200  0.75113000  1
  Cu  Cu20  1  0.00043900  0.85781300  0.35252500  1
  Cu  Cu21  1  0.35252500  0.00043900  0.85781300  1
  Cu  Cu22  1  0.85781300  0.35252500  0.00043900  1
  Cu  Cu23  1  0.64251300  0.85334700  0.50314700  1
  Cu  Cu24  1  0.50314700  0.64251300  0.85334700  1
  Cu  Cu25  1  0.85334700  0.50314700  0.64251300  1
  Cu  Cu26  1  0.35748700  0.14665300  0.49685300  1
  Cu  Cu27  1  0.49685300  0.35748700  0.14665300  1
  Cu  Cu28  1  0.14665300  0.49685300  0.35748700  1
  Cu  Cu29  1  0.64747500  0.99956100  0.14218700  1
  Cu  Cu30  1  0.14218700  0.64747500  0.99956100  1
  Cu  Cu31  1  0.99956100  0.14218700  0.64747500  1
