# generated using pymatgen
data_CuNi2C
_symmetry_space_group_name_H-M   'P 1'
_cell_length_a   4.42867200
_cell_length_b   5.53391706
_cell_length_c   6.60490800
_cell_angle_alpha   90.00000000
_cell_angle_beta   90.00000000
_cell_angle_gamma   113.58686788
_symmetry_Int_Tables_number   1
_chemical_formula_structural   CuNi2C
_chemical_formula_sum   'Cu2 Ni4 C2'
_cell_volume   148.34872788
_cell_formula_units_Z   2
loop_
 _symmetry_equiv_pos_site_id
 _symmetry_equiv_pos_as_xyz
  1  'x, y, z'
loop_
 _atom_site_type_symbol
 _atom_site_label
 _atom_site_symmetry_multiplicity
 _atom_site_fract_x
 _atom_site_fract_y
 _atom_site_fract_z
 _atom_site_occupancy
  C  C0  1  0.91139200  0.82278400  0.25000000  1
  C  C1  1  0.08860800  0.17721600  0.75000000  1
  Ni  Ni2  1  0.62698700  0.25397400  0.05271200  1
  Ni  Ni3  1  0.37301300  0.74602600  0.55271200  1
  Ni  Ni4  1  0.37301300  0.74602600  0.94728800  1
  Ni  Ni5  1  0.62698700  0.25397400  0.44728800  1
  Cu  Cu6  1  0.19994300  0.39988600  0.25000000  1
  Cu  Cu7  1  0.80005700  0.60011400  0.75000000  1
