# generated using pymatgen
data_Cu9NiC36
_symmetry_space_group_name_H-M   'P 1'
_cell_length_a   13.83472166
_cell_length_b   13.83472166
_cell_length_c   13.83472125
_cell_angle_alpha   44.64804145
_cell_angle_beta   44.64804145
_cell_angle_gamma   44.64803987
_symmetry_Int_Tables_number   1
_chemical_formula_structural   Cu9NiC36
_chemical_formula_sum   'Cu18 Ni2 C72'
_cell_volume   1189.37072553
_cell_formula_units_Z   2
loop_
 _symmetry_equiv_pos_site_id
 _symmetry_equiv_pos_as_xyz
  1  'x, y, z'
loop_
 _atom_site_type_symbol
 _atom_site_label
 _atom_site_symmetry_multiplicity
 _atom_site_fract_x
 _atom_site_fract_y
 _atom_site_fract_z
 _atom_site_occupancy
  Ni  Ni0  1  0.68331000  0.68331000  0.68331000  1
  Ni  Ni1  1  0.18331000  0.18331000  0.18331000  1
  Cu  Cu2  1  0.56115200  0.94331500  0.97086800  1
  Cu  Cu3  1  0.97086800  0.56115200  0.94331500  1
  Cu  Cu4  1  0.94331500  0.97086800  0.56115200  1
  Cu  Cu5  1  0.06115200  0.47086800  0.44331500  1
  Cu  Cu6  1  0.44331500  0.06115200  0.47086800  1
  Cu  Cu7  1  0.47086800  0.44331500  0.06115200  1
  Cu  Cu8  1  0.90738500  0.34386100  0.94483000  1
  Cu  Cu9  1  0.94483000  0.90738500  0.34386100  1
  Cu  Cu10  1  0.34386100  0.94483100  0.90738500  1
  Cu  Cu11  1  0.40738500  0.44483000  0.84386100  1
  Cu  Cu12  1  0.84386100  0.40738500  0.44483000  1
  Cu  Cu13  1  0.44483000  0.84386100  0.40738500  1
  Cu  Cu14  1  0.07383100  0.65955900  0.06266300  1
  Cu  Cu15  1  0.06266300  0.07383100  0.65955900  1
  Cu  Cu16  1  0.65955900  0.06266300  0.07383100  1
  Cu  Cu17  1  0.57383100  0.56266300  0.15955900  1
  Cu  Cu18  1  0.15955900  0.57383100  0.56266300  1
  Cu  Cu19  1  0.56266300  0.15955900  0.57383100  1
  C  C20  1  0.49990600  0.49990600  0.49990600  1
  C  C21  1  0.99990600  0.99990600  0.99990600  1
  C  C22  1  0.81481300  0.77330500  0.31730200  1
  C  C23  1  0.17923300  0.22595300  0.68764700  1
  C  C24  1  0.68764700  0.17923300  0.22595300  1
  C  C25  1  0.22595300  0.68764700  0.17923300  1
  C  C26  1  0.77330500  0.31730200  0.81481300  1
  C  C27  1  0.18764700  0.72595300  0.67923300  1
  C  C28  1  0.31730200  0.81481300  0.77330500  1
  C  C29  1  0.72595300  0.67923300  0.18764700  1
  C  C30  1  0.81730200  0.27330500  0.31481300  1
  C  C31  1  0.31481300  0.81730200  0.27330500  1
  C  C32  1  0.76717300  0.76717300  0.76717300  1
  C  C33  1  0.26717300  0.26717300  0.26717300  1
  C  C34  1  0.67923300  0.18764700  0.72595300  1
  C  C35  1  0.27330500  0.31481300  0.81730200  1
  C  C36  1  0.66976200  0.11217200  0.68962000  1
  C  C37  1  0.68962000  0.66976200  0.11217200  1
  C  C38  1  0.11217200  0.68962000  0.66976200  1
  C  C39  1  0.16976200  0.18962000  0.61217200  1
  C  C40  1  0.61217200  0.16976200  0.18962000  1
  C  C41  1  0.18962000  0.61217200  0.16976200  1
  C  C42  1  0.60993100  0.36376500  0.63938000  1
  C  C43  1  0.63938000  0.60993100  0.36376500  1
  C  C44  1  0.36376500  0.63938000  0.60993100  1
  C  C45  1  0.10993100  0.13938000  0.86376500  1
  C  C46  1  0.86376500  0.10993100  0.13938000  1
  C  C47  1  0.13938000  0.86376500  0.10993100  1
  C  C48  1  0.84800700  0.13278100  0.67270900  1
  C  C49  1  0.67270900  0.84800700  0.13278100  1
  C  C50  1  0.13278100  0.67270900  0.84800700  1
  C  C51  1  0.34800700  0.17270900  0.63278100  1
  C  C52  1  0.63278100  0.34800700  0.17270900  1
  C  C53  1  0.17270900  0.63278100  0.34800700  1
  C  C54  1  0.58626900  0.14416400  0.89898900  1
  C  C55  1  0.89898900  0.58626900  0.14416400  1
  C  C56  1  0.14416400  0.89898900  0.58626900  1
  C  C57  1  0.08626900  0.39898900  0.64416400  1
  C  C58  1  0.84399400  0.38290300  0.64019500  1
  C  C59  1  0.64416400  0.08626900  0.39898900  1
  C  C60  1  0.87198000  0.14192800  0.87763100  1
  C  C61  1  0.87763100  0.87198000  0.14192800  1
  C  C62  1  0.14192800  0.87763100  0.87198000  1
  C  C63  1  0.37198000  0.37763100  0.64192800  1
  C  C64  1  0.64192800  0.37198000  0.37763100  1
  C  C65  1  0.37763100  0.64192800  0.37198000  1
  C  C66  1  0.61033400  0.33465400  0.89173000  1
  C  C67  1  0.89173000  0.61033400  0.33465400  1
  C  C68  1  0.33465400  0.89173000  0.61033400  1
  C  C69  1  0.11033400  0.39173000  0.83465400  1
  C  C70  1  0.83465400  0.11033400  0.39173000  1
  C  C71  1  0.39173000  0.83465400  0.11033400  1
  C  C72  1  0.30876800  0.30876800  0.30876800  1
  C  C73  1  0.80876800  0.80876800  0.80876800  1
  C  C74  1  0.10934700  0.26161000  0.39008900  1
  C  C75  1  0.26161000  0.39008900  0.10934700  1
  C  C76  1  0.39008900  0.10934700  0.26161000  1
  C  C77  1  0.76161000  0.60934700  0.89008900  1
  C  C78  1  0.60934700  0.89008900  0.76161000  1
  C  C79  1  0.89008900  0.76161000  0.60934700  1
  C  C80  1  0.36737800  0.89673600  0.25876800  1
  C  C81  1  0.89673600  0.25876800  0.36737800  1
  C  C82  1  0.25876800  0.36737800  0.89673600  1
  C  C83  1  0.39673600  0.86737800  0.75876800  1
  C  C84  1  0.86737800  0.75876800  0.39673600  1
  C  C85  1  0.75876800  0.39673600  0.86737800  1
  C  C86  1  0.14019500  0.88290300  0.34399400  1
  C  C87  1  0.88290300  0.34399400  0.14019500  1
  C  C88  1  0.34399400  0.14019500  0.88290300  1
  C  C89  1  0.38290300  0.64019500  0.84399400  1
  C  C90  1  0.64019500  0.84399400  0.38290300  1
  C  C91  1  0.39898900  0.64416400  0.08626900  1
