# generated using pymatgen
data_Cu4Ni6C13
_symmetry_space_group_name_H-M   'P 1'
_cell_length_a   7.74743728
_cell_length_b   7.74743728
_cell_length_c   7.74743728
_cell_angle_alpha   109.47122063
_cell_angle_beta   109.47122063
_cell_angle_gamma   109.47122063
_symmetry_Int_Tables_number   1
_chemical_formula_structural   Cu4Ni6C13
_chemical_formula_sum   'Cu4 Ni6 C13'
_cell_volume   357.97468589
_cell_formula_units_Z   1
loop_
 _symmetry_equiv_pos_site_id
 _symmetry_equiv_pos_as_xyz
  1  'x, y, z'
loop_
 _atom_site_type_symbol
 _atom_site_label
 _atom_site_symmetry_multiplicity
 _atom_site_fract_x
 _atom_site_fract_y
 _atom_site_fract_z
 _atom_site_occupancy
  Ni  Ni0  1  0.25000000  0.50000000  0.75000000  1
  Ni  Ni1  1  0.75000000  0.50000000  0.25000000  1
  Ni  Ni2  1  0.25000000  0.75000000  0.50000000  1
  Ni  Ni3  1  0.75000000  0.25000000  0.50000000  1
  Ni  Ni4  1  0.50000000  0.25000000  0.75000000  1
  Ni  Ni5  1  0.50000000  0.75000000  0.25000000  1
  Cu  Cu6  1  0.00000000  0.33164700  0.00000000  1
  Cu  Cu7  1  0.33164700  0.00000000  0.00000000  1
  Cu  Cu8  1  0.66835300  0.66835300  0.66835300  1
  Cu  Cu9  1  0.00000000  0.00000000  0.33164700  1
  C  C10  1  0.00000000  0.00000000  0.00000000  1
  C  C11  1  0.00000000  0.55353500  0.27309700  1
  C  C12  1  0.44646500  0.44646500  0.71956200  1
  C  C13  1  0.00000000  0.27309700  0.55353500  1
  C  C14  1  0.27309700  0.00000000  0.55353500  1
  C  C15  1  0.72690300  0.28043800  0.72690300  1
  C  C16  1  0.28043800  0.72690300  0.72690300  1
  C  C17  1  0.72690300  0.72690300  0.28043800  1
  C  C18  1  0.55353500  0.27309700  0.00000000  1
  C  C19  1  0.27309700  0.55353500  0.00000000  1
  C  C20  1  0.44646500  0.71956200  0.44646500  1
  C  C21  1  0.55353500  0.00000000  0.27309700  1
  C  C22  1  0.71956200  0.44646500  0.44646500  1
