# generated using pymatgen
data_CuNiC6
_symmetry_space_group_name_H-M   'P 1'
_cell_length_a   5.17791000
_cell_length_b   5.27189811
_cell_length_c   5.49356597
_cell_angle_alpha   117.36302652
_cell_angle_beta   89.77824497
_cell_angle_gamma   117.70705954
_symmetry_Int_Tables_number   1
_chemical_formula_structural   CuNiC6
_chemical_formula_sum   'Cu1 Ni1 C6'
_cell_volume   113.63406529
_cell_formula_units_Z   1
loop_
 _symmetry_equiv_pos_site_id
 _symmetry_equiv_pos_as_xyz
  1  'x, y, z'
loop_
 _atom_site_type_symbol
 _atom_site_label
 _atom_site_symmetry_multiplicity
 _atom_site_fract_x
 _atom_site_fract_y
 _atom_site_fract_z
 _atom_site_occupancy
  Ni  Ni0  1  0.00000000  0.00000000  0.00000000  1
  Cu  Cu1  1  0.50000000  0.00000000  0.50000000  1
  C  C2  1  0.24453100  0.36834300  0.75346100  1
  C  C3  1  0.75546900  0.63165700  0.24653900  1
  C  C4  1  0.39380300  0.00122300  0.26567900  1
  C  C5  1  0.60619700  0.99877700  0.73432100  1
  C  C6  1  0.87068600  0.61007200  0.75252400  1
  C  C7  1  0.12931400  0.38992800  0.24747600  1
