# generated using pymatgen
data_Cu3NiC
_symmetry_space_group_name_H-M   'P 1'
_cell_length_a   6.42229724
_cell_length_b   6.42229724
_cell_length_c   7.06981103
_cell_angle_alpha   76.63431012
_cell_angle_beta   76.63431012
_cell_angle_gamma   97.16810675
_symmetry_Int_Tables_number   1
_chemical_formula_structural   Cu3NiC
_chemical_formula_sum   'Cu12 Ni4 C4'
_cell_volume   271.08188693
_cell_formula_units_Z   4
loop_
 _symmetry_equiv_pos_site_id
 _symmetry_equiv_pos_as_xyz
  1  'x, y, z'
loop_
 _atom_site_type_symbol
 _atom_site_label
 _atom_site_symmetry_multiplicity
 _atom_site_fract_x
 _atom_site_fract_y
 _atom_site_fract_z
 _atom_site_occupancy
  C  C0  1  0.88060900  0.11939100  0.75000000  1
  C  C1  1  0.11939100  0.88060900  0.25000000  1
  C  C2  1  0.40757600  0.59242400  0.75000000  1
  C  C3  1  0.59242400  0.40757600  0.25000000  1
  Ni  Ni4  1  0.60334400  0.85612600  0.25120900  1
  Ni  Ni5  1  0.14387400  0.39665600  0.24879100  1
  Ni  Ni6  1  0.39665600  0.14387400  0.74879100  1
  Ni  Ni7  1  0.85612600  0.60334400  0.75120900  1
  Cu  Cu8  1  0.05627500  0.59209200  0.73406600  1
  Cu  Cu9  1  0.40790800  0.94372500  0.76593400  1
  Cu  Cu10  1  0.94372500  0.40790800  0.26593400  1
  Cu  Cu11  1  0.59209200  0.05627500  0.23406600  1
  Cu  Cu12  1  0.79227300  0.74255500  0.62301400  1
  Cu  Cu13  1  0.25744500  0.20772700  0.87698600  1
  Cu  Cu14  1  0.20772700  0.25744500  0.37698600  1
  Cu  Cu15  1  0.74255500  0.79227300  0.12301400  1
  Cu  Cu16  1  0.69982800  0.46591100  0.89889000  1
  Cu  Cu17  1  0.53408900  0.30017200  0.60111000  1
  Cu  Cu18  1  0.30017200  0.53408900  0.10111000  1
  Cu  Cu19  1  0.46591100  0.69982800  0.39889000  1
