# generated using pymatgen
data_Cu2Ni2C
_symmetry_space_group_name_H-M   'P 1'
_cell_length_a   4.09819100
_cell_length_b   9.68460200
_cell_length_c   12.64997188
_cell_angle_alpha   84.39203989
_cell_angle_beta   90.00000000
_cell_angle_gamma   90.00000000
_symmetry_Int_Tables_number   1
_chemical_formula_structural   Cu2Ni2C
_chemical_formula_sum   'Cu8 Ni8 C4'
_cell_volume   499.66615883
_cell_formula_units_Z   4
loop_
 _symmetry_equiv_pos_site_id
 _symmetry_equiv_pos_as_xyz
  1  'x, y, z'
loop_
 _atom_site_type_symbol
 _atom_site_label
 _atom_site_symmetry_multiplicity
 _atom_site_fract_x
 _atom_site_fract_y
 _atom_site_fract_z
 _atom_site_occupancy
  C  C0  1  0.00000000  0.50000000  0.00000000  1
  C  C1  1  0.00000000  0.00000000  0.50000000  1
  C  C2  1  0.50000000  0.80173000  0.77786800  1
  C  C3  1  0.50000000  0.19827000  0.22213200  1
  Ni  Ni4  1  0.50000000  0.19655100  0.67516200  1
  Ni  Ni5  1  0.00000000  0.60060700  0.55416600  1
  Ni  Ni6  1  0.50000000  0.80344900  0.32483800  1
  Ni  Ni7  1  0.50000000  0.39550900  0.78053300  1
  Ni  Ni8  1  0.50000000  0.60449100  0.21946700  1
  Ni  Ni9  1  0.00000000  0.10847300  0.93657600  1
  Ni  Ni10  1  0.00000000  0.89152700  0.06342400  1
  Ni  Ni11  1  0.00000000  0.39939300  0.44583400  1
  Cu  Cu12  1  0.00000000  0.05171700  0.74181900  1
  Cu  Cu13  1  0.00000000  0.55348200  0.75508400  1
  Cu  Cu14  1  0.00000000  0.94828300  0.25818100  1
  Cu  Cu15  1  0.00000000  0.44651800  0.24491600  1
  Cu  Cu16  1  0.50000000  0.24232900  0.47404400  1
  Cu  Cu17  1  0.50000000  0.26084400  0.96672400  1
  Cu  Cu18  1  0.50000000  0.73915600  0.03327600  1
  Cu  Cu19  1  0.50000000  0.75767100  0.52595600  1
