# generated using pymatgen
data_Cu11Ni3C5
_symmetry_space_group_name_H-M   'P 1'
_cell_length_a   8.91790451
_cell_length_b   8.91790451
_cell_length_c   12.53410900
_cell_angle_alpha   90.00000000
_cell_angle_beta   90.00000000
_cell_angle_gamma   120.00000377
_symmetry_Int_Tables_number   1
_chemical_formula_structural   Cu11Ni3C5
_chemical_formula_sum   'Cu44 Ni12 C20'
_cell_volume   863.27610032
_cell_formula_units_Z   4
loop_
 _symmetry_equiv_pos_site_id
 _symmetry_equiv_pos_as_xyz
  1  'x, y, z'
loop_
 _atom_site_type_symbol
 _atom_site_label
 _atom_site_symmetry_multiplicity
 _atom_site_fract_x
 _atom_site_fract_y
 _atom_site_fract_z
 _atom_site_occupancy
  C  C0  1  0.68920500  0.12286100  0.87331800  1
  C  C1  1  0.87713900  0.56634400  0.87331800  1
  C  C2  1  0.43365600  0.31079500  0.87331800  1
  C  C3  1  0.56634400  0.87713900  0.62668200  1
  C  C4  1  0.31079500  0.43365600  0.62668200  1
  C  C5  1  0.12286100  0.68920500  0.62668200  1
  C  C6  1  0.31079500  0.87713900  0.12668200  1
  C  C7  1  0.12286100  0.43365600  0.12668200  1
  C  C8  1  0.56634400  0.68920500  0.12668200  1
  C  C9  1  0.43365600  0.12286100  0.37331800  1
  C  C10  1  0.68920500  0.56634400  0.37331800  1
  C  C11  1  0.87713900  0.31079500  0.37331800  1
  C  C12  1  0.00000000  0.00000000  0.50000000  1
  C  C13  1  0.00000000  0.00000000  0.00000000  1
  C  C14  1  0.00000000  0.00000000  0.75000000  1
  C  C15  1  0.00000000  0.00000000  0.25000000  1
  C  C16  1  0.66666700  0.33333300  0.62983900  1
  C  C17  1  0.33333300  0.66666700  0.87016100  1
  C  C18  1  0.33333300  0.66666700  0.37016100  1
  C  C19  1  0.66666700  0.33333300  0.12983900  1
  Ni  Ni20  1  0.25143300  0.93551900  0.87271100  1
  Ni  Ni21  1  0.06448100  0.31591400  0.87271100  1
  Ni  Ni22  1  0.68408600  0.74856700  0.87271100  1
  Ni  Ni23  1  0.31591400  0.06448100  0.62728900  1
  Ni  Ni24  1  0.74856700  0.68408600  0.62728900  1
  Ni  Ni25  1  0.93551900  0.25143300  0.62728900  1
  Ni  Ni26  1  0.74856700  0.06448100  0.12728900  1
  Ni  Ni27  1  0.93551900  0.68408600  0.12728900  1
  Ni  Ni28  1  0.31591400  0.25143300  0.12728900  1
  Ni  Ni29  1  0.68408600  0.93551900  0.37271100  1
  Ni  Ni30  1  0.25143300  0.31591400  0.37271100  1
  Ni  Ni31  1  0.06448100  0.74856700  0.37271100  1
  Cu  Cu32  1  0.63633000  0.86483400  0.85969400  1
  Cu  Cu33  1  0.13516600  0.77149600  0.85969400  1
  Cu  Cu34  1  0.22850400  0.36367000  0.85969400  1
  Cu  Cu35  1  0.77149600  0.13516600  0.64030600  1
  Cu  Cu36  1  0.36367000  0.22850400  0.64030600  1
  Cu  Cu37  1  0.86483400  0.63633000  0.64030600  1
  Cu  Cu38  1  0.36367000  0.13516600  0.14030600  1
  Cu  Cu39  1  0.86483400  0.22850400  0.14030600  1
  Cu  Cu40  1  0.77149600  0.63633000  0.14030600  1
  Cu  Cu41  1  0.22850400  0.86483400  0.35969400  1
  Cu  Cu42  1  0.63633000  0.77149600  0.35969400  1
  Cu  Cu43  1  0.13516600  0.36367000  0.35969400  1
  Cu  Cu44  1  0.41071400  0.96572400  0.88002600  1
  Cu  Cu45  1  0.03427600  0.44499000  0.88002600  1
  Cu  Cu46  1  0.55501000  0.58928600  0.88002600  1
  Cu  Cu47  1  0.44499000  0.03427600  0.61997400  1
  Cu  Cu48  1  0.58928600  0.55501000  0.61997400  1
  Cu  Cu49  1  0.96572400  0.41071400  0.61997400  1
  Cu  Cu50  1  0.58928600  0.03427600  0.11997400  1
  Cu  Cu51  1  0.96572400  0.55501000  0.11997400  1
  Cu  Cu52  1  0.44499000  0.41071400  0.11997400  1
  Cu  Cu53  1  0.55501000  0.96572400  0.38002600  1
  Cu  Cu54  1  0.41071400  0.44499000  0.38002600  1
  Cu  Cu55  1  0.03427600  0.58928600  0.38002600  1
  Cu  Cu56  1  0.21446000  0.05545500  0.87801600  1
  Cu  Cu57  1  0.94454500  0.15900500  0.87801600  1
  Cu  Cu58  1  0.84099500  0.78554000  0.87801600  1
  Cu  Cu59  1  0.15900500  0.94454500  0.62198400  1
  Cu  Cu60  1  0.78554000  0.84099500  0.62198400  1
  Cu  Cu61  1  0.05545500  0.21446000  0.62198400  1
  Cu  Cu62  1  0.78554000  0.94454500  0.12198400  1
  Cu  Cu63  1  0.05545500  0.84099500  0.12198400  1
  Cu  Cu64  1  0.15900500  0.21446000  0.12198400  1
  Cu  Cu65  1  0.84099500  0.05545500  0.37801600  1
  Cu  Cu66  1  0.21446000  0.15900500  0.37801600  1
  Cu  Cu67  1  0.94454500  0.78554000  0.37801600  1
  Cu  Cu68  1  0.66666700  0.33333300  0.48164800  1
  Cu  Cu69  1  0.33333300  0.66666700  0.01835200  1
  Cu  Cu70  1  0.33333300  0.66666700  0.51835200  1
  Cu  Cu71  1  0.66666700  0.33333300  0.98164800  1
  Cu  Cu72  1  0.66666700  0.33333300  0.77898900  1
  Cu  Cu73  1  0.33333300  0.66666700  0.72101100  1
  Cu  Cu74  1  0.33333300  0.66666700  0.22101100  1
  Cu  Cu75  1  0.66666700  0.33333300  0.27898900  1
