# generated using pymatgen
data_Cu4NiC
_symmetry_space_group_name_H-M   'P 1'
_cell_length_a   6.83395018
_cell_length_b   6.83395018
_cell_length_c   6.83395018
_cell_angle_alpha   112.92702907
_cell_angle_beta   112.92702907
_cell_angle_gamma   102.76090434
_symmetry_Int_Tables_number   1
_chemical_formula_structural   Cu4NiC
_chemical_formula_sum   'Cu16 Ni4 C4'
_cell_volume   243.20685865
_cell_formula_units_Z   4
loop_
 _symmetry_equiv_pos_site_id
 _symmetry_equiv_pos_as_xyz
  1  'x, y, z'
loop_
 _atom_site_type_symbol
 _atom_site_label
 _atom_site_symmetry_multiplicity
 _atom_site_fract_x
 _atom_site_fract_y
 _atom_site_fract_z
 _atom_site_occupancy
  C  C0  1  0.20341500  0.20341500  0.00000000  1
  C  C1  1  0.79658500  0.79658500  0.00000000  1
  C  C2  1  0.75000000  0.25000000  0.50000000  1
  C  C3  1  0.25000000  0.75000000  0.50000000  1
  Ni  Ni4  1  0.50000000  0.27157700  0.77157700  1
  Ni  Ni5  1  0.50000000  0.72842300  0.22842300  1
  Ni  Ni6  1  0.72842300  0.50000000  0.22842300  1
  Ni  Ni7  1  0.27157700  0.50000000  0.77157700  1
  Cu  Cu8  1  0.11158800  0.27539200  0.38698000  1
  Cu  Cu9  1  0.88841200  0.72460800  0.61302000  1
  Cu  Cu10  1  0.88841200  0.27539200  0.16380500  1
  Cu  Cu11  1  0.11158800  0.72460800  0.83619500  1
  Cu  Cu12  1  0.72460800  0.88841200  0.61302000  1
  Cu  Cu13  1  0.27539200  0.11158800  0.38698000  1
  Cu  Cu14  1  0.72460800  0.11158800  0.83619500  1
  Cu  Cu15  1  0.27539200  0.88841200  0.16380500  1
  Cu  Cu16  1  0.41882500  0.41882500  0.53244100  1
  Cu  Cu17  1  0.88638500  0.88638500  0.46755900  1
  Cu  Cu18  1  0.58117500  0.11361500  0.00000000  1
  Cu  Cu19  1  0.11361500  0.58117500  0.00000000  1
  Cu  Cu20  1  0.58117500  0.58117500  0.46755900  1
  Cu  Cu21  1  0.11361500  0.11361500  0.53244100  1
  Cu  Cu22  1  0.88638500  0.41882500  0.00000000  1
  Cu  Cu23  1  0.41882500  0.88638500  0.00000000  1
