# generated using pymatgen
data_Cu3NiC
_symmetry_space_group_name_H-M   'P 1'
_cell_length_a   8.19684644
_cell_length_b   8.19684644
_cell_length_c   8.19684622
_cell_angle_alpha   45.19073362
_cell_angle_beta   45.19073362
_cell_angle_gamma   45.19073660
_symmetry_Int_Tables_number   1
_chemical_formula_structural   Cu3NiC
_chemical_formula_sum   'Cu6 Ni2 C2'
_cell_volume   252.40335144
_cell_formula_units_Z   2
loop_
 _symmetry_equiv_pos_site_id
 _symmetry_equiv_pos_as_xyz
  1  'x, y, z'
loop_
 _atom_site_type_symbol
 _atom_site_label
 _atom_site_symmetry_multiplicity
 _atom_site_fract_x
 _atom_site_fract_y
 _atom_site_fract_z
 _atom_site_occupancy
  C  C0  1  0.66738400  0.66738400  0.66738400  1
  C  C1  1  0.33261600  0.33261600  0.33261600  1
  Ni  Ni2  1  0.94888800  0.94888800  0.94888800  1
  Ni  Ni3  1  0.05111200  0.05111200  0.05111200  1
  Cu  Cu4  1  0.23425600  0.92137400  0.61247800  1
  Cu  Cu5  1  0.92137400  0.61247800  0.23425600  1
  Cu  Cu6  1  0.38752200  0.76574400  0.07862600  1
  Cu  Cu7  1  0.76574400  0.07862600  0.38752200  1
  Cu  Cu8  1  0.07862600  0.38752200  0.76574400  1
  Cu  Cu9  1  0.61247800  0.23425600  0.92137400  1
