# generated using pymatgen
data_CuNi3C5
_symmetry_space_group_name_H-M   'P 1'
_cell_length_a   9.64774453
_cell_length_b   9.64774453
_cell_length_c   6.40083300
_cell_angle_alpha   90.00000000
_cell_angle_beta   90.00000000
_cell_angle_gamma   120.00000360
_symmetry_Int_Tables_number   1
_chemical_formula_structural   CuNi3C5
_chemical_formula_sum   'Cu2 Ni6 C10'
_cell_volume   515.96316941
_cell_formula_units_Z   2
loop_
 _symmetry_equiv_pos_site_id
 _symmetry_equiv_pos_as_xyz
  1  'x, y, z'
loop_
 _atom_site_type_symbol
 _atom_site_label
 _atom_site_symmetry_multiplicity
 _atom_site_fract_x
 _atom_site_fract_y
 _atom_site_fract_z
 _atom_site_occupancy
  Ni  Ni0  1  0.61797100  0.00000000  0.25000000  1
  Ni  Ni1  1  0.61797100  0.61797100  0.75000000  1
  Ni  Ni2  1  0.38202900  0.00000000  0.75000000  1
  Ni  Ni3  1  0.38202900  0.38202900  0.25000000  1
  Ni  Ni4  1  0.00000000  0.61797100  0.25000000  1
  Ni  Ni5  1  0.00000000  0.38202900  0.75000000  1
  Cu  Cu6  1  0.00000000  0.00000000  0.00000000  1
  Cu  Cu7  1  0.00000000  0.00000000  0.50000000  1
  C  C8  1  0.33333300  0.66666700  0.50000000  1
  C  C9  1  0.66666700  0.33333300  0.00000000  1
  C  C10  1  0.66666700  0.33333300  0.50000000  1
  C  C11  1  0.33333300  0.66666700  0.00000000  1
  C  C12  1  0.74228800  0.00000000  0.75000000  1
  C  C13  1  0.74228800  0.74228800  0.25000000  1
  C  C14  1  0.00000000  0.25771200  0.25000000  1
  C  C15  1  0.00000000  0.74228800  0.75000000  1
  C  C16  1  0.25771200  0.00000000  0.25000000  1
  C  C17  1  0.25771200  0.25771200  0.75000000  1
