# generated using pymatgen
data_Cu5Ni
_symmetry_space_group_name_H-M   'P 1'
_cell_length_a   8.66672699
_cell_length_b   8.66672699
_cell_length_c   5.07639100
_cell_angle_alpha   90.00000000
_cell_angle_beta   90.00000000
_cell_angle_gamma   156.15635829
_symmetry_Int_Tables_number   1
_chemical_formula_structural   Cu5Ni
_chemical_formula_sum   'Cu5 Ni1'
_cell_volume   154.13697617
_cell_formula_units_Z   1
loop_
 _symmetry_equiv_pos_site_id
 _symmetry_equiv_pos_as_xyz
  1  'x, y, z'
loop_
 _atom_site_type_symbol
 _atom_site_label
 _atom_site_symmetry_multiplicity
 _atom_site_fract_x
 _atom_site_fract_y
 _atom_site_fract_z
 _atom_site_occupancy
  Ni  Ni0  1  0.77952300  0.22047700  0.50000000  1
  Cu  Cu1  1  0.32557500  0.67442500  0.00000000  1
  Cu  Cu2  1  0.66623800  0.33376200  0.00000000  1
  Cu  Cu3  1  0.00121600  0.99878400  0.00000000  1
  Cu  Cu4  1  0.43979000  0.56021000  0.50000000  1
  Cu  Cu5  1  0.12098900  0.87901100  0.50000000  1
