# generated using pymatgen
data_Cu3Ni7C5
_symmetry_space_group_name_H-M   'P 1'
_cell_length_a   15.21782300
_cell_length_b   4.65692900
_cell_length_c   4.65788118
_cell_angle_alpha   89.95927197
_cell_angle_beta   90.00000000
_cell_angle_gamma   90.00000000
_symmetry_Int_Tables_number   1
_chemical_formula_structural   Cu3Ni7C5
_chemical_formula_sum   'Cu6 Ni14 C10'
_cell_volume   330.09613616
_cell_formula_units_Z   2
loop_
 _symmetry_equiv_pos_site_id
 _symmetry_equiv_pos_as_xyz
  1  'x, y, z'
loop_
 _atom_site_type_symbol
 _atom_site_label
 _atom_site_symmetry_multiplicity
 _atom_site_fract_x
 _atom_site_fract_y
 _atom_site_fract_z
 _atom_site_occupancy
  C  C0  1  0.19264700  0.01432800  0.96251100  1
  C  C1  1  0.00000000  0.97144700  0.01905600  1
  C  C2  1  0.80735300  0.01432800  0.96251100  1
  C  C3  1  0.60091900  0.98022800  0.98934200  1
  C  C4  1  0.39908100  0.98022800  0.98934200  1
  C  C5  1  0.09998600  0.49280300  0.49216900  1
  C  C6  1  0.69391800  0.51061600  0.52938600  1
  C  C7  1  0.90001400  0.49280300  0.49216900  1
  C  C8  1  0.50000000  0.51359700  0.51782200  1
  C  C9  1  0.30608200  0.51061600  0.52938600  1
  Ni  Ni10  1  0.09481600  0.79175600  0.80332800  1
  Ni  Ni11  1  0.90518400  0.79175600  0.80332800  1
  Ni  Ni12  1  0.70376400  0.82032900  0.80893900  1
  Ni  Ni13  1  0.50000000  0.80449300  0.81754700  1
  Ni  Ni14  1  0.29623600  0.82032900  0.80893900  1
  Ni  Ni15  1  0.19929400  0.32006400  0.67909200  1
  Ni  Ni16  1  0.80070600  0.32006400  0.67909200  1
  Ni  Ni17  1  0.59592700  0.30410300  0.70353400  1
  Ni  Ni18  1  0.40407300  0.30410300  0.70353400  1
  Ni  Ni19  1  0.00000000  0.67148300  0.31512100  1
  Ni  Ni20  1  0.59762000  0.69639000  0.31245300  1
  Ni  Ni21  1  0.40238000  0.69639000  0.31245300  1
  Ni  Ni22  1  0.09633700  0.18455900  0.19283500  1
  Ni  Ni23  1  0.90366300  0.18455900  0.19283500  1
  Cu  Cu24  1  0.00000000  0.28707500  0.69731400  1
  Cu  Cu25  1  0.20184200  0.70665800  0.29558600  1
  Cu  Cu26  1  0.79815800  0.70665800  0.29558600  1
  Cu  Cu27  1  0.70192000  0.20649900  0.19613400  1
  Cu  Cu28  1  0.29808000  0.20649900  0.19613400  1
  Cu  Cu29  1  0.50000000  0.19524000  0.20252000  1
