# generated using pymatgen
data_Cu(NiC)2
_symmetry_space_group_name_H-M   'P 1'
_cell_length_a   4.56979400
_cell_length_b   6.17178000
_cell_length_c   7.37698358
_cell_angle_alpha   90.00000000
_cell_angle_beta   107.51309770
_cell_angle_gamma   90.00000000
_symmetry_Int_Tables_number   1
_chemical_formula_structural   Cu(NiC)2
_chemical_formula_sum   'Cu2 Ni4 C4'
_cell_volume   198.41479978
_cell_formula_units_Z   2
loop_
 _symmetry_equiv_pos_site_id
 _symmetry_equiv_pos_as_xyz
  1  'x, y, z'
loop_
 _atom_site_type_symbol
 _atom_site_label
 _atom_site_symmetry_multiplicity
 _atom_site_fract_x
 _atom_site_fract_y
 _atom_site_fract_z
 _atom_site_occupancy
  C  C0  1  0.84185500  0.25000000  0.67460700  1
  C  C1  1  0.15814500  0.75000000  0.32539300  1
  C  C2  1  0.57239200  0.25000000  0.16001300  1
  C  C3  1  0.42760800  0.75000000  0.83998700  1
  Ni  Ni4  1  0.35385200  0.53275400  0.69881300  1
  Ni  Ni5  1  0.64614800  0.03275400  0.30118700  1
  Ni  Ni6  1  0.64614800  0.46724600  0.30118700  1
  Ni  Ni7  1  0.35385200  0.96724600  0.69881300  1
  Cu  Cu8  1  0.94410700  0.25000000  0.08393700  1
  Cu  Cu9  1  0.05589300  0.75000000  0.91606300  1
