# generated using pymatgen
data_Cu3NiC6
_symmetry_space_group_name_H-M   'P 1'
_cell_length_a   6.33232500
_cell_length_b   10.91245500
_cell_length_c   12.54157959
_cell_angle_alpha   79.15837052
_cell_angle_beta   90.00000000
_cell_angle_gamma   90.00000000
_symmetry_Int_Tables_number   1
_chemical_formula_structural   Cu3NiC6
_chemical_formula_sum   'Cu6 Ni2 C12'
_cell_volume   851.16958355
_cell_formula_units_Z   2
loop_
 _symmetry_equiv_pos_site_id
 _symmetry_equiv_pos_as_xyz
  1  'x, y, z'
loop_
 _atom_site_type_symbol
 _atom_site_label
 _atom_site_symmetry_multiplicity
 _atom_site_fract_x
 _atom_site_fract_y
 _atom_site_fract_z
 _atom_site_occupancy
  C  C0  1  0.75000000  0.12337600  0.32193400  1
  C  C1  1  0.25000000  0.87662400  0.67806600  1
  C  C2  1  0.75000000  0.13531100  0.97720100  1
  C  C3  1  0.25000000  0.86468900  0.02279900  1
  C  C4  1  0.75000000  0.43841500  0.46035500  1
  C  C5  1  0.25000000  0.56158500  0.53964500  1
  C  C6  1  0.75000000  0.45789600  0.07805100  1
  C  C7  1  0.25000000  0.54210400  0.92194900  1
  C  C8  1  0.75000000  0.73971800  0.22430900  1
  C  C9  1  0.25000000  0.26028200  0.77569100  1
  C  C10  1  0.75000000  0.08428500  0.63086300  1
  C  C11  1  0.25000000  0.91571500  0.36913700  1
  Ni  Ni12  1  0.75000000  0.67900600  0.72048700  1
  Ni  Ni13  1  0.25000000  0.32099400  0.27951300  1
  Cu  Cu14  1  0.75000000  0.43312600  0.77381500  1
  Cu  Cu15  1  0.25000000  0.56687400  0.22618500  1
  Cu  Cu16  1  0.75000000  0.78654600  0.51172600  1
  Cu  Cu17  1  0.25000000  0.21345400  0.48827400  1
  Cu  Cu18  1  0.75000000  0.82130700  0.87564100  1
  Cu  Cu19  1  0.25000000  0.17869300  0.12435900  1
