# generated using pymatgen
data_CuNi
_symmetry_space_group_name_H-M   'P 1'
_cell_length_a   3.83325800
_cell_length_b   8.54258714
_cell_length_c   9.90234846
_cell_angle_alpha   104.43334571
_cell_angle_beta   90.00000000
_cell_angle_gamma   102.96534411
_symmetry_Int_Tables_number   1
_chemical_formula_structural   CuNi
_chemical_formula_sum   'Cu6 Ni6'
_cell_volume   305.48388041
_cell_formula_units_Z   6
loop_
 _symmetry_equiv_pos_site_id
 _symmetry_equiv_pos_as_xyz
  1  'x, y, z'
loop_
 _atom_site_type_symbol
 _atom_site_label
 _atom_site_symmetry_multiplicity
 _atom_site_fract_x
 _atom_site_fract_y
 _atom_site_fract_z
 _atom_site_occupancy
  Ni  Ni0  1  0.25981300  0.51962600  0.21004400  1
  Ni  Ni1  1  0.74018700  0.48037400  0.78995600  1
  Ni  Ni2  1  0.36929600  0.73859200  0.07971200  1
  Ni  Ni3  1  0.63070400  0.26140800  0.92028800  1
  Ni  Ni4  1  0.93255000  0.86510000  0.40864300  1
  Ni  Ni5  1  0.06745000  0.13490000  0.59135700  1
  Cu  Cu6  1  0.66110300  0.32220600  0.17980500  1
  Cu  Cu7  1  0.33889700  0.67779400  0.82019500  1
  Cu  Cu8  1  0.96329900  0.92659800  0.17261400  1
  Cu  Cu9  1  0.03670100  0.07340200  0.82738600  1
  Cu  Cu10  1  0.34645300  0.69290600  0.45388400  1
  Cu  Cu11  1  0.65354700  0.30709400  0.54611600  1
