# generated using pymatgen
data_Cu2NiC9
_symmetry_space_group_name_H-M   'P 1'
_cell_length_a   10.31271587
_cell_length_b   10.31271587
_cell_length_c   10.31271587
_cell_angle_alpha   158.97416780
_cell_angle_beta   158.97416780
_cell_angle_gamma   29.90680727
_symmetry_Int_Tables_number   1
_chemical_formula_structural   Cu2NiC9
_chemical_formula_sum   'Cu2 Ni1 C9'
_cell_volume   141.10399243
_cell_formula_units_Z   1
loop_
 _symmetry_equiv_pos_site_id
 _symmetry_equiv_pos_as_xyz
  1  'x, y, z'
loop_
 _atom_site_type_symbol
 _atom_site_label
 _atom_site_symmetry_multiplicity
 _atom_site_fract_x
 _atom_site_fract_y
 _atom_site_fract_z
 _atom_site_occupancy
  Ni  Ni0  1  0.50000000  0.50000000  0.00000000  1
  Cu  Cu1  1  0.31763900  0.31763900  0.00000000  1
  Cu  Cu2  1  0.68236100  0.68236100  0.00000000  1
  C  C3  1  0.90498600  0.90498600  0.00000000  1
  C  C4  1  0.09501400  0.09501400  0.00000000  1
  C  C5  1  0.00000000  0.00000000  0.00000000  1
  C  C6  1  0.39856300  0.89856300  0.50000000  1
  C  C7  1  0.89856300  0.39856300  0.50000000  1
  C  C8  1  0.79989100  0.79989100  0.00000000  1
  C  C9  1  0.20010900  0.20010900  0.00000000  1
  C  C10  1  0.10143700  0.60143700  0.50000000  1
  C  C11  1  0.60143700  0.10143700  0.50000000  1
