# generated using pymatgen
data_Cu8NiC4
_symmetry_space_group_name_H-M   'P 1'
_cell_length_a   3.14475400
_cell_length_b   13.03443800
_cell_length_c   29.66873500
_cell_angle_alpha   90.00000000
_cell_angle_beta   90.00000000
_cell_angle_gamma   90.00000000
_symmetry_Int_Tables_number   1
_chemical_formula_structural   Cu8NiC4
_chemical_formula_sum   'Cu16 Ni2 C8'
_cell_volume   1216.12444533
_cell_formula_units_Z   2
loop_
 _symmetry_equiv_pos_site_id
 _symmetry_equiv_pos_as_xyz
  1  'x, y, z'
loop_
 _atom_site_type_symbol
 _atom_site_label
 _atom_site_symmetry_multiplicity
 _atom_site_fract_x
 _atom_site_fract_y
 _atom_site_fract_z
 _atom_site_occupancy
  C  C0  1  0.00000000  0.50000000  0.37464000  1
  C  C1  1  0.50000000  0.00000000  0.53049800  1
  C  C2  1  0.50000000  0.50000000  0.65293200  1
  C  C3  1  0.00000000  0.00000000  0.62066000  1
  C  C4  1  0.00000000  0.00000000  0.43648900  1
  C  C5  1  0.00000000  0.50000000  0.56299800  1
  C  C6  1  0.50000000  0.00000000  0.34788400  1
  C  C7  1  0.50000000  0.50000000  0.46934600  1
  Ni  Ni8  1  0.50000000  0.90575100  0.70131400  1
  Ni  Ni9  1  0.50000000  0.09424900  0.70131400  1
  Cu  Cu10  1  0.00000000  0.87696900  0.37365100  1
  Cu  Cu11  1  0.50000000  0.61691200  0.34222600  1
  Cu  Cu12  1  0.00000000  0.37820600  0.62652000  1
  Cu  Cu13  1  0.50000000  0.88029900  0.46812500  1
  Cu  Cu14  1  0.00000000  0.87617300  0.56115900  1
  Cu  Cu15  1  0.00000000  0.62004400  0.43729000  1
  Cu  Cu16  1  0.50000000  0.38308800  0.34222600  1
  Cu  Cu17  1  0.50000000  0.11970100  0.46812500  1
  Cu  Cu18  1  0.50000000  0.87885400  0.65719900  1
  Cu  Cu19  1  0.00000000  0.62179400  0.62652000  1
  Cu  Cu20  1  0.00000000  0.12382700  0.56115900  1
  Cu  Cu21  1  0.50000000  0.12114600  0.65719900  1
  Cu  Cu22  1  0.00000000  0.37995600  0.43729000  1
  Cu  Cu23  1  0.00000000  0.12303100  0.37365100  1
  Cu  Cu24  1  0.50000000  0.61995500  0.53144200  1
  Cu  Cu25  1  0.50000000  0.38004500  0.53144200  1
