# generated using pymatgen
data_Cu2NiC
_symmetry_space_group_name_H-M   'P 1'
_cell_length_a   10.58469978
_cell_length_b   10.58469978
_cell_length_c   3.44797839
_cell_angle_alpha   88.13785201
_cell_angle_beta   88.13785201
_cell_angle_gamma   151.65411420
_symmetry_Int_Tables_number   1
_chemical_formula_structural   Cu2NiC
_chemical_formula_sum   'Cu4 Ni2 C2'
_cell_volume   181.78892804
_cell_formula_units_Z   2
loop_
 _symmetry_equiv_pos_site_id
 _symmetry_equiv_pos_as_xyz
  1  'x, y, z'
loop_
 _atom_site_type_symbol
 _atom_site_label
 _atom_site_symmetry_multiplicity
 _atom_site_fract_x
 _atom_site_fract_y
 _atom_site_fract_z
 _atom_site_occupancy
  C  C0  1  0.50000000  0.00000000  0.00000000  1
  C  C1  1  0.00000000  0.50000000  0.50000000  1
  Ni  Ni2  1  0.65912000  0.34088000  0.75000000  1
  Ni  Ni3  1  0.34088000  0.65912000  0.25000000  1
  Cu  Cu4  1  0.84661000  0.91365000  0.77389000  1
  Cu  Cu5  1  0.08635000  0.15339000  0.72611000  1
  Cu  Cu6  1  0.91365000  0.84661000  0.27389000  1
  Cu  Cu7  1  0.15339000  0.08635000  0.22611000  1
